./opt_IRC/b3lyp/chairs/1/glo_2w_alpha_ircf_chair_B3LYP_631Gd.out
 OpenBabel01251716433D
Gaussian 09 # opt=(MaxCycle=1000) freq B3LYP/6-31G(d)
 30 28  0  0  1  0  0  0  0  0999 V2000
    0.0344   -1.3276   -0.3587 C   0  0  1  0  0  0  0  0  0  0  0  0
   -0.5994   -0.0736   -0.7483 O   0  0  0  0  0  0  0  0  0  0  0  0
   -3.4653    0.5812   -0.5944 H   0  0  0  0  0  0  0  0  0  0  0  0
   -3.1875   -2.8889    0.8290 H   0  0  0  0  0  0  0  0  0  0  0  0
   -2.8679   -2.0135    1.0928 O   0  0  0  0  0  0  0  0  0  0  0  0
   -3.2026   -1.3948    0.3876 H   0  0  0  0  0  0  0  0  0  0  0  0
   -3.4014   -0.3241   -0.9576 O   0  0  0  0  0  0  0  0  0  0  0  0
   -2.4513   -0.3401   -1.1913 H   0  0  0  0  0  0  0  0  0  0  0  0
    1.5328   -1.1651   -0.6308 C   0  0  1  0  0  0  0  0  0  0  0  0
    2.0703    0.0005    0.1972 C   0  0  2  0  0  0  0  0  0  0  0  0
    1.2796    1.2865   -0.0588 C   0  0  1  0  0  0  0  0  0  0  0  0
   -0.2323    1.0316    0.0863 C   0  0  1  0  0  0  0  0  0  0  0  0
    1.6396   -0.9040   -1.6962 H   0  0  0  0  0  0  0  0  0  0  0  0
    1.4932    1.6333   -1.0761 H   0  0  0  0  0  0  0  0  0  0  0  0
   -0.4434    0.7748    1.1371 H   0  0  0  0  0  0  0  0  0  0  0  0
    1.9682   -0.2704    1.2613 H   0  0  0  0  0  0  0  0  0  0  0  0
    2.2098   -2.3697   -0.3389 O   0  0  0  0  0  0  0  0  0  0  0  0
    3.4430    0.1605   -0.1439 O   0  0  0  0  0  0  0  0  0  0  0  0
    1.7473    2.3360    0.7955 O   0  0  0  0  0  0  0  0  0  0  0  0
    3.7478    0.9696    0.2993 H   0  0  0  0  0  0  0  0  0  0  0  0
    3.1574   -2.1585   -0.3820 H   0  0  0  0  0  0  0  0  0  0  0  0
    1.5958    2.0510    1.7132 H   0  0  0  0  0  0  0  0  0  0  0  0
   -1.0697    2.2436   -0.3105 C   0  0  0  0  0  0  0  0  0  0  0  0
   -2.4433    2.1467    0.0836 O   0  0  0  0  0  0  0  0  0  0  0  0
   -1.0802    2.3425   -1.3997 H   0  0  0  0  0  0  0  0  0  0  0  0
   -0.6089    3.1442    0.1141 H   0  0  0  0  0  0  0  0  0  0  0  0
   -2.4782    2.1537    1.0532 H   0  0  0  0  0  0  0  0  0  0  0  0
   -0.4083   -2.0581   -1.0477 H   0  0  0  0  0  0  0  0  0  0  0  0
   -0.1896   -1.6369    0.9632 O   0  0  0  0  0  0  0  0  0  0  0  0
   -1.1554   -1.8559    1.0724 H   0  0  0  0  0  0  0  0  0  0  0  0
  1 28  1  6  0  0  0
  1 29  1  0  0  0  0
  2  1  1  0  0  0  0
  2 12  1  0  0  0  0
  4  5  1  0  0  0  0
  6  5  1  0  0  0  0
  7  3  1  0  0  0  0
  8  7  1  0  0  0  0
  9 13  1  6  0  0  0
  9  1  1  0  0  0  0
  9 17  1  0  0  0  0
  9 10  1  0  0  0  0
 10 16  1  1  0  0  0
 11 14  1  6  0  0  0
 11 12  1  0  0  0  0
 11 10  1  0  0  0  0
 11 19  1  0  0  0  0
 12 15  1  1  0  0  0
 18 10  1  0  0  0  0
 18 20  1  0  0  0  0
 19 22  1  0  0  0  0
 21 17  1  0  0  0  0
 23 24  1  0  0  0  0
 23 12  1  0  0  0  0
 23 26  1  0  0  0  0
 24 27  1  0  0  0  0
 25 23  1  0  0  0  0
 29 30  1  0  0  0  0
M  END
$$$$
