./opt_IRC/b3lyp/chairs/1/glo_1w_alpha_ircf_chair_B3LYP_631Gd.out
 OpenBabel01251716433D
Gaussian 09 # opt=(MaxCycle=1000) freq B3LYP/6-31G(d)
 30 27  0  0  1  0  0  0  0  0999 V2000
   -1.3194   -1.9543    0.0630 C   0  0  0  0  0  0  0  0  0  0  0  0
   -1.6527    0.2707   -1.0102 O   0  0  0  0  0  0  0  0  0  0  0  0
   -4.5874   -0.5004    0.4648 H   0  0  0  0  0  0  0  0  0  0  0  0
   -3.7679   -0.0439    0.7071 O   0  0  0  0  0  0  0  0  0  0  0  0
   -2.5411    0.2720   -0.5783 H   0  0  0  0  0  0  0  0  0  0  0  0
    0.0633   -1.9084   -0.5748 C   0  0  1  0  0  0  0  0  0  0  0  0
    0.9718   -0.8129    0.0146 C   0  0  2  0  0  0  0  0  0  0  0  0
    0.6394    0.6260   -0.4340 C   0  0  1  0  0  0  0  0  0  0  0  0
   -0.8088    1.0944   -0.2091 C   0  0  1  0  0  0  0  0  0  0  0  0
   -0.0594   -1.7397   -1.6550 H   0  0  0  0  0  0  0  0  0  0  0  0
    0.8885    0.7163   -1.4963 H   0  0  0  0  0  0  0  0  0  0  0  0
   -1.0542    0.9763    0.8587 H   0  0  0  0  0  0  0  0  0  0  0  0
    0.9011   -0.8701    1.1119 H   0  0  0  0  0  0  0  0  0  0  0  0
    0.6316   -3.1857   -0.3253 O   0  0  0  0  0  0  0  0  0  0  0  0
    2.2749   -1.1749   -0.4285 O   0  0  0  0  0  0  0  0  0  0  0  0
    1.5440    1.5497    0.2354 O   0  0  0  0  0  0  0  0  0  0  0  0
    2.9560   -0.7387    0.1344 H   0  0  0  0  0  0  0  0  0  0  0  0
    1.5932   -3.0268   -0.3989 H   0  0  0  0  0  0  0  0  0  0  0  0
    1.2511    1.6094    1.1624 H   0  0  0  0  0  0  0  0  0  0  0  0
   -1.0472    2.5670   -0.5978 C   0  0  0  0  0  0  0  0  0  0  0  0
   -0.3955    3.5059    0.2428 O   0  0  0  0  0  0  0  0  0  0  0  0
   -2.1205    2.7627   -0.5078 H   0  0  0  0  0  0  0  0  0  0  0  0
   -0.7748    2.7015   -1.6568 H   0  0  0  0  0  0  0  0  0  0  0  0
    0.5551    3.3841    0.0870 H   0  0  0  0  0  0  0  0  0  0  0  0
   -2.1188   -2.3597   -0.5868 H   0  0  0  0  0  0  0  0  0  0  0  0
   -1.5479   -1.6677    1.2269 O   0  0  0  0  0  0  0  0  0  0  0  0
   -3.2272   -0.7117    1.1792 H   0  0  0  0  0  0  0  0  0  0  0  0
    4.0637    0.5109    0.8074 O   0  0  0  0  0  0  0  0  0  0  0  0
    4.7775    0.6048    0.1578 H   0  0  0  0  0  0  0  0  0  0  0  0
    3.3649    1.1299    0.5084 H   0  0  0  0  0  0  0  0  0  0  0  0
  1 26  2  0  0  0  0
  2  5  1  0  0  0  0
  2  9  1  0  0  0  0
  3  4  1  0  0  0  0
  4 27  1  0  0  0  0
  6 10  1  6  0  0  0
  6 14  1  0  0  0  0
  6  7  1  0  0  0  0
  6  1  1  0  0  0  0
  7 13  1  1  0  0  0
  8 11  1  6  0  0  0
  8  9  1  0  0  0  0
  8  7  1  0  0  0  0
  8 16  1  0  0  0  0
  9 12  1  1  0  0  0
 15  7  1  0  0  0  0
 15 17  1  0  0  0  0
 16 19  1  0  0  0  0
 18 14  1  0  0  0  0
 20 22  1  0  0  0  0
 20  9  1  0  0  0  0
 20 21  1  0  0  0  0
 23 20  1  0  0  0  0
 24 21  1  0  0  0  0
 25  1  1  0  0  0  0
 29 28  1  0  0  0  0
 30 28  1  0  0  0  0
M  END
$$$$
