./opt_IRC/b3lyp/chairs/1/glo_1w_alpha_ircr_chair_B3LYP_631Gd.out
 OpenBabel01241715093D
Gaussian 09 # opt=(MaxCycle=1000) freq B3LYP/6-31G(d)
 30 28  0  0  1  0  0  0  0  0999 V2000
   -1.4148   -1.2654   -0.2396 C   0  0  1  0  0  0  0  0  0  0  0  0
   -1.5512    0.0979   -0.7226 O   0  0  0  0  0  0  0  0  0  0  0  0
   -4.7450   -0.3853    0.2507 H   0  0  0  0  0  0  0  0  0  0  0  0
   -3.9946    0.0154    0.7150 O   0  0  0  0  0  0  0  0  0  0  0  0
   -3.3909    0.3226    0.0092 H   0  0  0  0  0  0  0  0  0  0  0  0
   -0.0176   -1.7537   -0.6104 C   0  0  1  0  0  0  0  0  0  0  0  0
    1.0524   -0.8659    0.0335 C   0  0  2  0  0  0  0  0  0  0  0  0
    0.8079    0.5993   -0.3521 C   0  0  1  0  0  0  0  0  0  0  0  0
   -0.6514    1.0249   -0.0972 C   0  0  1  0  0  0  0  0  0  0  0  0
    0.0746   -1.6415   -1.7040 H   0  0  0  0  0  0  0  0  0  0  0  0
    1.0535    0.7270   -1.4117 H   0  0  0  0  0  0  0  0  0  0  0  0
   -0.8320    1.0356    0.9877 H   0  0  0  0  0  0  0  0  0  0  0  0
    0.9683   -0.9678    1.1272 H   0  0  0  0  0  0  0  0  0  0  0  0
    0.1466   -3.1011   -0.2311 O   0  0  0  0  0  0  0  0  0  0  0  0
    2.2919   -1.3677   -0.4336 O   0  0  0  0  0  0  0  0  0  0  0  0
    1.7110    1.5038    0.3393 O   0  0  0  0  0  0  0  0  0  0  0  0
    3.0231   -0.9677    0.0907 H   0  0  0  0  0  0  0  0  0  0  0  0
    1.1035   -3.2639   -0.3045 H   0  0  0  0  0  0  0  0  0  0  0  0
    1.4639    1.4928    1.2815 H   0  0  0  0  0  0  0  0  0  0  0  0
   -0.9820    2.4124   -0.6615 C   0  0  0  0  0  0  0  0  0  0  0  0
   -0.3036    3.4497    0.0227 O   0  0  0  0  0  0  0  0  0  0  0  0
   -2.0529    2.5989   -0.5314 H   0  0  0  0  0  0  0  0  0  0  0  0
   -0.7722    2.4213   -1.7439 H   0  0  0  0  0  0  0  0  0  0  0  0
    0.6454    3.2451   -0.0336 H   0  0  0  0  0  0  0  0  0  0  0  0
   -2.1778   -1.8122   -0.8077 H   0  0  0  0  0  0  0  0  0  0  0  0
   -1.6168   -1.3511    1.1282 O   0  0  0  0  0  0  0  0  0  0  0  0
   -2.5469   -1.0720    1.2851 H   0  0  0  0  0  0  0  0  0  0  0  0
    4.1938    0.2621    0.7438 O   0  0  0  0  0  0  0  0  0  0  0  0
    4.8830    0.3518    0.0677 H   0  0  0  0  0  0  0  0  0  0  0  0
    3.5187    0.9320    0.5084 H   0  0  0  0  0  0  0  0  0  0  0  0
  1 25  1  6  0  0  0
  1 26  1  0  0  0  0
  2  1  1  0  0  0  0
  2  9  1  0  0  0  0
  3  4  1  0  0  0  0
  5  4  1  0  0  0  0
  6 10  1  6  0  0  0
  6  1  1  0  0  0  0
  6 14  1  0  0  0  0
  6  7  1  0  0  0  0
  7 13  1  1  0  0  0
  8 11  1  6  0  0  0
  8  9  1  0  0  0  0
  8  7  1  0  0  0  0
  8 16  1  0  0  0  0
  9 12  1  1  0  0  0
 15  7  1  0  0  0  0
 15 17  1  0  0  0  0
 16 19  1  0  0  0  0
 18 14  1  0  0  0  0
 20 22  1  0  0  0  0
 20  9  1  0  0  0  0
 20 21  1  0  0  0  0
 23 20  1  0  0  0  0
 24 21  1  0  0  0  0
 26 27  1  0  0  0  0
 29 28  1  0  0  0  0
 30 28  1  0  0  0  0
M  END
$$$$
