./opt_IRC/b3lyp/boats/6/glo_2w_alpha_ircr_boat6_B3LYP_631Gd_opt.out
  Spartan 01241720463D
Gaussian 09 # b3lyp/6-31g(d) opt freq
 30 28  0  0  0  0  0  0  0  0999 V2000
   -0.3484    1.0400   -0.3102 C   0  0  0  0  0  0  0  0  0  0  0  0
   -2.2218   -0.4996    0.5384 C   0  0  0  0  0  0  0  0  0  0  0  0
   -1.6842    0.9484    0.4479 C   0  0  0  0  0  0  0  0  0  0  0  0
   -1.2948   -1.4994   -0.1493 C   0  0  0  0  0  0  0  0  0  0  0  0
   -1.5754   -2.5308    0.0936 H   0  0  0  0  0  0  0  0  0  0  0  0
   -3.2072   -0.5515    0.0606 H   0  0  0  0  0  0  0  0  0  0  0  0
   -0.4850    0.8662   -1.3841 H   0  0  0  0  0  0  0  0  0  0  0  0
   -1.5370    1.3344    1.4638 H   0  0  0  0  0  0  0  0  0  0  0  0
    0.1636   -1.2553    0.2828 C   0  0  0  0  0  0  0  0  0  0  0  0
    0.6127    0.0942    0.1798 O   0  0  0  0  0  0  0  0  0  0  0  0
    0.2504    2.4529   -0.1677 C   0  0  0  0  0  0  0  0  0  0  0  0
   -0.4569    3.2160   -0.5071 H   0  0  0  0  0  0  0  0  0  0  0  0
    0.5277    2.6521    0.8727 H   0  0  0  0  0  0  0  0  0  0  0  0
    1.4426    2.5776   -0.9539 O   0  0  0  0  0  0  0  0  0  0  0  0
    1.6754    3.5241   -0.9399 H   0  0  0  0  0  0  0  0  0  0  0  0
   -1.4179   -1.3673   -1.5778 O   0  0  0  0  0  0  0  0  0  0  0  0
   -0.6046   -1.7944   -1.9271 H   0  0  0  0  0  0  0  0  0  0  0  0
   -2.4370   -0.8878    1.9045 O   0  0  0  0  0  0  0  0  0  0  0  0
   -1.7305   -0.5254    2.4656 H   0  0  0  0  0  0  0  0  0  0  0  0
   -2.6543    1.8096   -0.1602 O   0  0  0  0  0  0  0  0  0  0  0  0
   -2.9262    1.4009   -1.0041 H   0  0  0  0  0  0  0  0  0  0  0  0
    3.4125   -1.9811    0.6471 O   0  0  0  0  0  0  0  0  0  0  0  0
    1.8348   -2.1510   -0.0985 H   0  0  0  0  0  0  0  0  0  0  0  0
    3.6028   -1.0654    0.3250 H   0  0  0  0  0  0  0  0  0  0  0  0
    4.3136   -2.3066    0.8092 H   0  0  0  0  0  0  0  0  0  0  0  0
    0.9795   -2.0435   -0.5772 O   0  0  0  0  0  0  0  0  0  0  0  0
    0.3136   -1.5845    1.3169 H   0  0  0  0  0  0  0  0  0  0  0  0
    3.2979    0.5476   -0.3272 O   0  0  0  0  0  0  0  0  0  0  0  0
    3.2368    1.3824   -0.8321 H   0  0  0  0  0  0  0  0  0  0  0  0
    2.3303    0.4074   -0.2016 H   0  0  0  0  0  0  0  0  0  0  0  0
  1  7  1  0  0  0  0
  1 11  1  0  0  0  0
  1  3  1  0  0  0  0
  1 10  1  0  0  0  0
  2  6  1  0  0  0  0
  2 18  1  0  0  0  0
  3  8  1  0  0  0  0
  3  2  1  0  0  0  0
  4  9  1  0  0  0  0
  4  5  1  0  0  0  0
  4  2  1  0  0  0  0
  9 10  1  0  0  0  0
  9 27  1  0  0  0  0
 11 13  1  0  0  0  0
 12 11  1  0  0  0  0
 14 15  1  0  0  0  0
 14 11  1  0  0  0  0
 16  4  1  0  0  0  0
 17 16  1  0  0  0  0
 18 19  1  0  0  0  0
 20  3  1  0  0  0  0
 21 20  1  0  0  0  0
 22 24  1  0  0  0  0
 25 22  1  0  0  0  0
 26 23  1  0  0  0  0
 26  9  1  0  0  0  0
 28 30  1  0  0  0  0
 29 28  1  0  0  0  0
M  END
