./TS/b3lyp/boats/6/glo_1w_alpha_ts_boat6_B3LYP_631Gd.out
 OpenBabel01251716443D
Gaussian 09 # opt=(calcfc,ts,noeigentest,maxcycle=1000,cartesian) freq b3lyp/6-3
 30 27  0  0  1  0  0  0  0  0999 V2000
   -0.4588    0.8504    0.1420 C   0  0  2  0  0  0  0  0  0  0  0  0
    1.4847   -0.7708    0.0799 C   0  0  1  0  0  0  0  0  0  0  0  0
    1.0511    0.7248   -0.0399 C   0  0  2  0  0  0  0  0  0  0  0  0
    0.3548   -1.7879    0.3503 C   0  0  2  0  0  0  0  0  0  0  0  0
    0.7521   -2.7831    0.0872 H   0  0  0  0  0  0  0  0  0  0  0  0
    2.1518   -0.8423    0.9418 H   0  0  0  0  0  0  0  0  0  0  0  0
   -0.7531    0.4673    1.1246 H   0  0  0  0  0  0  0  0  0  0  0  0
    1.2598    1.0344   -1.0799 H   0  0  0  0  0  0  0  0  0  0  0  0
   -0.9586   -1.6050   -0.4568 C   0  0  0  0  0  0  0  0  0  0  0  0
   -1.0024    0.0056   -0.8985 O   0  0  0  0  0  0  0  0  0  0  0  0
   -0.9795    2.2670    0.0025 C   0  0  0  0  0  0  0  0  0  0  0  0
   -0.4004    2.9099    0.6747 H   0  0  0  0  0  0  0  0  0  0  0  0
   -0.8464    2.6171   -1.0314 H   0  0  0  0  0  0  0  0  0  0  0  0
   -2.3715    2.2634    0.3660 O   0  0  0  0  0  0  0  0  0  0  0  0
   -2.7088    3.1671    0.2775 H   0  0  0  0  0  0  0  0  0  0  0  0
    0.0404   -1.7191    1.7245 O   0  0  0  0  0  0  0  0  0  0  0  0
   -0.9276   -1.9037    1.7358 H   0  0  0  0  0  0  0  0  0  0  0  0
    2.2950   -1.1644   -1.0470 O   0  0  0  0  0  0  0  0  0  0  0  0
    1.7798   -1.0045   -1.8548 H   0  0  0  0  0  0  0  0  0  0  0  0
    1.7221    1.5668    0.8681 O   0  0  0  0  0  0  0  0  0  0  0  0
    2.6687    1.5314    0.6025 H   0  0  0  0  0  0  0  0  0  0  0  0
   -3.3894   -0.1029   -0.7252 O   0  0  0  0  0  0  0  0  0  0  0  0
   -3.0808   -0.9969   -0.2179 H   0  0  0  0  0  0  0  0  0  0  0  0
   -2.2628    0.1132   -0.9717 H   0  0  0  0  0  0  0  0  0  0  0  0
   -3.5398    0.5985   -0.0582 H   0  0  0  0  0  0  0  0  0  0  0  0
    4.1457    0.8522   -0.3577 O   0  0  0  0  0  0  0  0  0  0  0  0
    4.8147    0.4616    0.2245 H   0  0  0  0  0  0  0  0  0  0  0  0
    3.6991    0.0828   -0.7742 H   0  0  0  0  0  0  0  0  0  0  0  0
   -2.0240   -1.8931    0.2372 O   0  0  0  0  0  0  0  0  0  0  0  0
   -0.8956   -1.9932   -1.4865 H   0  0  0  0  0  0  0  0  0  0  0  0
  1  7  1  1  0  0  0
  2  4  1  0  0  0  0
  2  6  1  1  0  0  0
  3  8  1  6  0  0  0
  3  2  1  0  0  0  0
  3  1  1  0  0  0  0
  3 20  1  0  0  0  0
  4  5  1  6  0  0  0
  4 16  1  0  0  0  0
  9 29  1  0  0  0  0
  9  4  1  0  0  0  0
 10  1  1  0  0  0  0
 11  1  1  0  0  0  0
 11 14  1  0  0  0  0
 11 12  1  0  0  0  0
 13 11  1  0  0  0  0
 15 14  1  0  0  0  0
 16 17  1  0  0  0  0
 18  2  1  0  0  0  0
 19 18  1  0  0  0  0
 21 20  1  0  0  0  0
 22 23  1  0  0  0  0
 22 25  1  0  0  0  0
 24 10  1  0  0  0  0
 26 27  1  0  0  0  0
 28 26  1  0  0  0  0
 30  9  1  0  0  0  0
M  RAD  2   9   2  29   2
M  END
$$$$
