./TS/b3lyp/boats/6/glo_2w_alpha_ts_boat6_B3LYP_631Gd.out
 OpenBabel01241715093D
Gaussian 09 # opt=(calcfc,ts,noeigentest,maxcycle=1000,cartesian) freq b3lyp/6-3
 30 27  0  0  1  0  0  0  0  0999 V2000
   -0.1450    0.9799   -0.2014 C   0  0  2  0  0  0  0  0  0  0  0  0
   -2.2061   -0.2572    0.6117 C   0  0  1  0  0  0  0  0  0  0  0  0
   -1.6958    1.0186   -0.0979 C   0  0  2  0  0  0  0  0  0  0  0  0
   -1.4696   -1.4922    0.0715 C   0  0  2  0  0  0  0  0  0  0  0  0
   -1.8902   -2.3990    0.5314 H   0  0  0  0  0  0  0  0  0  0  0  0
   -3.2750   -0.3462    0.3946 H   0  0  0  0  0  0  0  0  0  0  0  0
    0.1240    0.5692   -1.1818 H   0  0  0  0  0  0  0  0  0  0  0  0
   -2.0155    1.8734    0.5115 H   0  0  0  0  0  0  0  0  0  0  0  0
    0.0584   -1.4685    0.3868 C   0  0  2  0  0  0  0  0  0  0  0  0
    0.3701    0.1029    0.8165 O   0  0  0  0  0  0  0  0  0  0  0  0
    0.4388    2.3769   -0.0951 C   0  0  0  0  0  0  0  0  0  0  0  0
   -0.1502    3.0296   -0.7506 H   0  0  0  0  0  0  0  0  0  0  0  0
    0.3625    2.7430    0.9384 H   0  0  0  0  0  0  0  0  0  0  0  0
    1.8189    2.3835   -0.5311 O   0  0  0  0  0  0  0  0  0  0  0  0
    2.1334    3.3006   -0.5226 H   0  0  0  0  0  0  0  0  0  0  0  0
   -1.6265   -1.5360   -1.3438 O   0  0  0  0  0  0  0  0  0  0  0  0
   -0.7252   -1.8089   -1.6457 H   0  0  0  0  0  0  0  0  0  0  0  0
   -2.0900   -0.1666    2.0259 O   0  0  0  0  0  0  0  0  0  0  0  0
   -1.1482    0.0141    2.1921 H   0  0  0  0  0  0  0  0  0  0  0  0
   -2.2682    1.1993   -1.3810 O   0  0  0  0  0  0  0  0  0  0  0  0
   -2.1708    0.3257   -1.8119 H   0  0  0  0  0  0  0  0  0  0  0  0
    3.2822   -1.7307   -0.3303 O   0  0  0  0  0  0  0  0  0  0  0  0
    2.2600   -1.9144   -0.4653 H   0  0  0  0  0  0  0  0  0  0  0  0
    3.1738   -0.4996    0.3128 H   0  0  0  0  0  0  0  0  0  0  0  0
    3.6514   -1.6562   -1.2242 H   0  0  0  0  0  0  0  0  0  0  0  0
    0.7790   -1.8335   -0.6309 O   0  0  0  0  0  0  0  0  0  0  0  0
    0.2988   -1.8990    1.3709 H   0  0  0  0  0  0  0  0  0  0  0  0
    2.8450    0.3730    0.8789 O   0  0  0  0  0  0  0  0  0  0  0  0
    2.8185    1.1733    0.2907 H   0  0  0  0  0  0  0  0  0  0  0  0
    1.7856    0.2142    0.9726 H   0  0  0  0  0  0  0  0  0  0  0  0
  1  7  1  6  0  0  0
  1  3  1  0  0  0  0
  1 11  1  0  0  0  0
  1 10  1  0  0  0  0
  2  6  1  6  0  0  0
  2 18  1  0  0  0  0
  3  8  1  1  0  0  0
  3  2  1  0  0  0  0
  4  9  1  0  0  0  0
  4  5  1  1  0  0  0
  4  2  1  0  0  0  0
  9 10  1  0  0  0  0
  9 27  1  1  0  0  0
 11 13  1  0  0  0  0
 12 11  1  0  0  0  0
 14 15  1  0  0  0  0
 14 11  1  0  0  0  0
 16  4  1  0  0  0  0
 17 16  1  0  0  0  0
 18 19  1  0  0  0  0
 20  3  1  0  0  0  0
 21 20  1  0  0  0  0
 23 22  1  0  0  0  0
 25 22  1  0  0  0  0
 26  9  1  0  0  0  0
 28 30  1  0  0  0  0
 29 28  1  0  0  0  0
M  RAD  2  24   2  26   2
M  END
$$$$
