./TS/b3lyp/boats/6/glo_1w_beta_ts_boat6_B3LYP_631Gd.out
 OpenBabel01251716443D
Gaussian 09 # opt=(calcfc,ts,noeigentest,maxcycle=1000,cartesian) b3lyp 6-31g(d)
 30 27  0  0  1  0  0  0  0  0999 V2000
    0.8843    0.7393   -0.5655 C   0  0  2  0  0  0  0  0  0  0  0  0
   -1.4176   -0.3968   -0.5652 C   0  0  1  0  0  0  0  0  0  0  0  0
   -0.5652    0.8057   -0.0667 C   0  0  2  0  0  0  0  0  0  0  0  0
   -0.5703   -1.5983   -1.0367 C   0  0  2  0  0  0  0  0  0  0  0  0
   -1.2107   -2.4920   -1.0062 H   0  0  0  0  0  0  0  0  0  0  0  0
   -2.0345   -0.0406   -1.3985 H   0  0  0  0  0  0  0  0  0  0  0  0
    0.9175    0.7355   -1.6563 H   0  0  0  0  0  0  0  0  0  0  0  0
   -0.5333    0.7284    1.0322 H   0  0  0  0  0  0  0  0  0  0  0  0
    0.5432   -1.8186   -0.0245 C   0  0  0  0  0  0  0  0  0  0  0  0
    1.2869   -2.5592   -0.3500 H   0  0  0  0  0  0  0  0  0  0  0  0
    1.4957   -0.5117   -0.1370 O   0  0  0  0  0  0  0  0  0  0  0  0
    1.7122    1.9045   -0.0452 C   0  0  0  0  0  0  0  0  0  0  0  0
    1.2330    2.8245   -0.4022 H   0  0  0  0  0  0  0  0  0  0  0  0
    1.6759    1.9205    1.0593 H   0  0  0  0  0  0  0  0  0  0  0  0
    3.0418    1.7609   -0.5191 O   0  0  0  0  0  0  0  0  0  0  0  0
    3.5277    2.5661   -0.2861 H   0  0  0  0  0  0  0  0  0  0  0  0
    0.0847   -1.9298    1.2170 O   0  0  0  0  0  0  0  0  0  0  0  0
    0.0035   -1.4188   -2.3228 O   0  0  0  0  0  0  0  0  0  0  0  0
   -0.7185   -1.3949   -2.9697 H   0  0  0  0  0  0  0  0  0  0  0  0
   -2.3174   -0.8412    0.4597 O   0  0  0  0  0  0  0  0  0  0  0  0
   -1.7184   -1.2955    1.0988 H   0  0  0  0  0  0  0  0  0  0  0  0
   -1.1101    2.0466   -0.4638 O   0  0  0  0  0  0  0  0  0  0  0  0
   -1.9612    2.1358    0.0275 H   0  0  0  0  0  0  0  0  0  0  0  0
    2.0323   -0.8874    2.1648 O   0  0  0  0  0  0  0  0  0  0  0  0
    1.1096   -1.5002    1.9802 H   0  0  0  0  0  0  0  0  0  0  0  0
    1.7976   -0.1726    2.7787 H   0  0  0  0  0  0  0  0  0  0  0  0
    1.9273   -0.5015    0.9807 H   0  0  0  0  0  0  0  0  0  0  0  0
   -3.4059    1.6364    1.0277 O   0  0  0  0  0  0  0  0  0  0  0  0
   -4.2320    1.7130    0.5270 H   0  0  0  0  0  0  0  0  0  0  0  0
   -3.1832    0.6763    0.9965 H   0  0  0  0  0  0  0  0  0  0  0  0
  1  7  1  6  0  0  0
  1 11  1  0  0  0  0
  1  3  1  0  0  0  0
  1 12  1  0  0  0  0
  2  6  1  6  0  0  0
  2  3  1  0  0  0  0
  2 20  1  0  0  0  0
  3  8  1  1  0  0  0
  4  5  1  6  0  0  0
  4  2  1  0  0  0  0
  4  9  1  0  0  0  0
  9 17  1  0  0  0  0
 10  9  1  0  0  0  0
 11 27  1  0  0  0  0
 12 14  1  0  0  0  0
 13 12  1  0  0  0  0
 15 16  1  0  0  0  0
 15 12  1  0  0  0  0
 18  4  1  0  0  0  0
 19 18  1  0  0  0  0
 20 21  1  0  0  0  0
 22  3  1  0  0  0  0
 22 23  1  0  0  0  0
 24 26  1  0  0  0  0
 25 24  1  0  0  0  0
 29 28  1  0  0  0  0
 30 28  1  0  0  0  0
M  RAD  2   9   2  17   2
M  END
$$$$
