./opt_IRC/b3lyp/chairs/2/glo_1w_beta_ircf_chair2_B3LYP_631Gd.out
 OpenBabel01241715093D
Gaussian 09 # opt=(MaxCycle=1000) freq B3LYP/6-31G(d)
 30 27  0  0  1  0  0  0  0  0999 V2000
    1.9362    0.2415    0.8094 C   0  0  0  0  0  0  0  0  0  0  0  0
    0.9428    0.7982   -1.1828 O   0  0  0  0  0  0  0  0  0  0  0  0
    1.5768   -1.2335    0.6845 C   0  0  1  0  0  0  0  0  0  0  0  0
    0.0542   -1.4765    0.5065 C   0  0  2  0  0  0  0  0  0  0  0  0
   -0.5603   -1.0595   -0.8579 C   0  0  1  0  0  0  0  0  0  0  0  0
   -0.4407    0.4118   -1.2841 C   0  0  1  0  0  0  0  0  0  0  0  0
    1.8455   -1.6880    1.6537 H   0  0  0  0  0  0  0  0  0  0  0  0
   -1.6312   -1.2789   -0.7953 H   0  0  0  0  0  0  0  0  0  0  0  0
   -0.7317    0.4273   -2.3431 H   0  0  0  0  0  0  0  0  0  0  0  0
   -0.0907   -2.5595    0.5604 H   0  0  0  0  0  0  0  0  0  0  0  0
    2.2714   -1.8675   -0.3773 O   0  0  0  0  0  0  0  0  0  0  0  0
   -0.6184   -0.9192    1.6434 O   0  0  0  0  0  0  0  0  0  0  0  0
   -0.0570   -1.9279   -1.8666 O   0  0  0  0  0  0  0  0  0  0  0  0
   -0.1715   -0.0783    1.8724 H   0  0  0  0  0  0  0  0  0  0  0  0
    3.2262   -1.7984   -0.2235 H   0  0  0  0  0  0  0  0  0  0  0  0
    0.9102   -1.8252   -1.8680 H   0  0  0  0  0  0  0  0  0  0  0  0
   -1.3783    1.3980   -0.5550 C   0  0  0  0  0  0  0  0  0  0  0  0
   -2.7308    1.1203   -0.8311 O   0  0  0  0  0  0  0  0  0  0  0  0
   -1.1579    2.4064   -0.9286 H   0  0  0  0  0  0  0  0  0  0  0  0
   -1.1721    1.4123    0.5247 H   0  0  0  0  0  0  0  0  0  0  0  0
   -3.0608    0.4989   -0.1437 H   0  0  0  0  0  0  0  0  0  0  0  0
    1.4139    0.9730    1.6518 O   0  0  0  0  0  0  0  0  0  0  0  0
    1.4238    2.7541    0.8231 H   0  0  0  0  0  0  0  0  0  0  0  0
    2.8224    0.5689    0.2376 H   0  0  0  0  0  0  0  0  0  0  0  0
    1.0120    1.7695   -1.0326 H   0  0  0  0  0  0  0  0  0  0  0  0
    1.3496    3.2655   -0.0079 O   0  0  0  0  0  0  0  0  0  0  0  0
    2.1771    3.7634   -0.0837 H   0  0  0  0  0  0  0  0  0  0  0  0
   -3.3637   -0.5904    1.2680 O   0  0  0  0  0  0  0  0  0  0  0  0
   -2.4419   -0.7896    1.5437 H   0  0  0  0  0  0  0  0  0  0  0  0
   -3.7488   -0.0896    2.0023 H   0  0  0  0  0  0  0  0  0  0  0  0
  1 22  2  0  0  0  0
  2 25  1  0  0  0  0
  3  1  1  0  0  0  0
  3  7  1  1  0  0  0
  4 10  1  1  0  0  0
  4  3  1  0  0  0  0
  4 12  1  0  0  0  0
  5  8  1  1  0  0  0
  5  4  1  0  0  0  0
  6  9  1  6  0  0  0
  6  2  1  0  0  0  0
  6  5  1  0  0  0  0
  6 17  1  0  0  0  0
 11 15  1  0  0  0  0
 11  3  1  0  0  0  0
 12 14  1  0  0  0  0
 13  5  1  0  0  0  0
 16 13  1  0  0  0  0
 17 20  1  0  0  0  0
 18 17  1  0  0  0  0
 18 21  1  0  0  0  0
 19 17  1  0  0  0  0
 24  1  1  0  0  0  0
 26 23  1  0  0  0  0
 27 26  1  0  0  0  0
 28 29  1  0  0  0  0
 28 30  1  0  0  0  0
M  END
$$$$
