./opt_IRC/b3lyp/chairs/2/glo_2w_beta_ircr_chair2_B3LYP_631Gd.out
 OpenBabel01251716433D
Gaussian 09 # opt=(MaxCycle=1000) freq B3LYP/6-31G(d)
 30 28  0  0  1  0  0  0  0  0999 V2000
    0.4699   -1.1188    0.3688 C   0  0  2  0  0  0  0  0  0  0  0  0
    0.5641   -0.3509   -0.8338 O   0  0  0  0  0  0  0  0  0  0  0  0
   -0.9835   -1.4994    0.7031 C   0  0  1  0  0  0  0  0  0  0  0  0
   -1.8723   -0.2420    0.6999 C   0  0  2  0  0  0  0  0  0  0  0  0
   -1.7613    0.4893   -0.6555 C   0  0  1  0  0  0  0  0  0  0  0  0
   -0.2969    0.8214   -0.9928 C   0  0  1  0  0  0  0  0  0  0  0  0
   -0.9896   -1.9476    1.7058 H   0  0  0  0  0  0  0  0  0  0  0  0
   -2.2998    1.4371   -0.5882 H   0  0  0  0  0  0  0  0  0  0  0  0
   -0.2768    0.9890   -2.0728 H   0  0  0  0  0  0  0  0  0  0  0  0
   -2.9143   -0.5444    0.8436 H   0  0  0  0  0  0  0  0  0  0  0  0
   -1.5219   -2.4073   -0.2582 O   0  0  0  0  0  0  0  0  0  0  0  0
   -1.5147    0.6242    1.7834 O   0  0  0  0  0  0  0  0  0  0  0  0
   -2.3848   -0.2466   -1.6950 O   0  0  0  0  0  0  0  0  0  0  0  0
   -0.5832    0.4359    2.0190 H   0  0  0  0  0  0  0  0  0  0  0  0
   -0.9367   -3.1788   -0.3194 H   0  0  0  0  0  0  0  0  0  0  0  0
   -2.0707   -1.1656   -1.6181 H   0  0  0  0  0  0  0  0  0  0  0  0
    0.2928    2.0668   -0.2531 C   0  0  0  0  0  0  0  0  0  0  0  0
   -0.6846    2.9314    0.2925 O   0  0  0  0  0  0  0  0  0  0  0  0
    0.8575    2.6706   -0.9718 H   0  0  0  0  0  0  0  0  0  0  0  0
    0.9998    1.7236    0.5100 H   0  0  0  0  0  0  0  0  0  0  0  0
   -1.1181    2.4255    1.0087 H   0  0  0  0  0  0  0  0  0  0  0  0
    0.9781   -0.4813    1.5053 O   0  0  0  0  0  0  0  0  0  0  0  0
    1.9586   -0.3158    1.3882 H   0  0  0  0  0  0  0  0  0  0  0  0
    1.0577   -2.0182    0.1279 H   0  0  0  0  0  0  0  0  0  0  0  0
    2.2360   -0.3306   -1.5470 H   0  0  0  0  0  0  0  0  0  0  0  0
    3.5764   -0.0937    1.0083 O   0  0  0  0  0  0  0  0  0  0  0  0
    4.1521   -0.8114    1.3117 H   0  0  0  0  0  0  0  0  0  0  0  0
    3.2149   -0.3272   -1.6605 O   0  0  0  0  0  0  0  0  0  0  0  0
    3.4079    0.4723   -2.1731 H   0  0  0  0  0  0  0  0  0  0  0  0
    3.6074   -0.1330    0.0164 H   0  0  0  0  0  0  0  0  0  0  0  0
  1 24  1  6  0  0  0
  1  3  1  0  0  0  0
  1 22  1  0  0  0  0
  2  1  1  0  0  0  0
  3  7  1  1  0  0  0
  4  3  1  0  0  0  0
  4 10  1  1  0  0  0
  4 12  1  0  0  0  0
  5  8  1  1  0  0  0
  5  4  1  0  0  0  0
  6  9  1  6  0  0  0
  6  2  1  0  0  0  0
  6  5  1  0  0  0  0
  6 17  1  0  0  0  0
 11  3  1  0  0  0  0
 12 14  1  0  0  0  0
 13 16  1  0  0  0  0
 13  5  1  0  0  0  0
 15 11  1  0  0  0  0
 17 18  1  0  0  0  0
 17 20  1  0  0  0  0
 18 21  1  0  0  0  0
 19 17  1  0  0  0  0
 23 22  1  0  0  0  0
 26 27  1  0  0  0  0
 28 25  1  0  0  0  0
 29 28  1  0  0  0  0
 30 26  1  0  0  0  0
M  END
$$$$
