./opt_IRC/b3lyp/chairs/2/glo_2w_alpha_ircr_chair2_B3LYP_631Gd.out
 OpenBabel01241715093D
Gaussian 09 # opt=(MaxCycle=1000) freq B3LYP/6-31G(d)
 30 27  0  0  1  0  0  0  0  0999 V2000
   -0.8141   -1.1600   -0.8115 C   0  0  0  0  0  0  0  0  0  0  0  0
   -0.5092    0.4417    0.9043 O   0  0  0  0  0  0  0  0  0  0  0  0
    0.5227   -1.8136   -0.5038 C   0  0  1  0  0  0  0  0  0  0  0  0
    1.7657   -0.8929   -0.4430 C   0  0  2  0  0  0  0  0  0  0  0  0
    1.8383    0.1213    0.7176 C   0  0  1  0  0  0  0  0  0  0  0  0
    0.7140    1.1653    0.7835 C   0  0  1  0  0  0  0  0  0  0  0  0
    0.6870   -2.4795   -1.3784 H   0  0  0  0  0  0  0  0  0  0  0  0
    2.7773    0.6699    0.5944 H   0  0  0  0  0  0  0  0  0  0  0  0
    0.9039    1.7290    1.7091 H   0  0  0  0  0  0  0  0  0  0  0  0
    2.6300   -1.5540   -0.3008 H   0  0  0  0  0  0  0  0  0  0  0  0
    0.4132   -2.5866    0.6740 O   0  0  0  0  0  0  0  0  0  0  0  0
    1.8802   -0.1847   -1.6890 O   0  0  0  0  0  0  0  0  0  0  0  0
    1.9511   -0.5846    1.9420 O   0  0  0  0  0  0  0  0  0  0  0  0
    2.2957   -0.7673   -2.3426 H   0  0  0  0  0  0  0  0  0  0  0  0
   -0.5481   -2.7253    0.7932 H   0  0  0  0  0  0  0  0  0  0  0  0
    1.2069   -1.2133    1.9648 H   0  0  0  0  0  0  0  0  0  0  0  0
    0.6577    2.1546   -0.4055 C   0  0  0  0  0  0  0  0  0  0  0  0
    1.9360    2.5890   -0.8403 O   0  0  0  0  0  0  0  0  0  0  0  0
    0.1030    3.0479   -0.1001 H   0  0  0  0  0  0  0  0  0  0  0  0
    0.0947    1.6930   -1.2278 H   0  0  0  0  0  0  0  0  0  0  0  0
    2.2961    1.8421   -1.3494 H   0  0  0  0  0  0  0  0  0  0  0  0
   -0.8291   -0.3508   -1.5536 H   0  0  0  0  0  0  0  0  0  0  0  0
   -1.8435   -1.6940   -0.4062 O   0  0  0  0  0  0  0  0  0  0  0  0
   -3.3665   -0.7228   -0.5781 H   0  0  0  0  0  0  0  0  0  0  0  0
   -1.2841    1.0638    0.8660 H   0  0  0  0  0  0  0  0  0  0  0  0
   -4.0980   -0.0636   -0.5440 O   0  0  0  0  0  0  0  0  0  0  0  0
   -4.7701   -0.4767    0.0183 H   0  0  0  0  0  0  0  0  0  0  0  0
   -2.7110    1.9903    0.6135 O   0  0  0  0  0  0  0  0  0  0  0  0
   -3.1440    2.2040    1.4533 H   0  0  0  0  0  0  0  0  0  0  0  0
   -3.3090    1.3317    0.1736 H   0  0  0  0  0  0  0  0  0  0  0  0
  1  3  1  0  0  0  0
  1 23  2  0  0  0  0
  3  7  1  6  0  0  0
  3  4  1  0  0  0  0
  3 11  1  0  0  0  0
  4 10  1  1  0  0  0
  4  5  1  0  0  0  0
  5  8  1  6  0  0  0
  5  6  1  0  0  0  0
  5 13  1  0  0  0  0
  6  2  1  0  0  0  0
  6  9  1  1  0  0  0
 11 15  1  0  0  0  0
 12  4  1  0  0  0  0
 13 16  1  0  0  0  0
 14 12  1  0  0  0  0
 17 19  1  0  0  0  0
 17  6  1  0  0  0  0
 18 17  1  0  0  0  0
 20 17  1  0  0  0  0
 21 18  1  0  0  0  0
 22  1  1  0  0  0  0
 24 26  1  0  0  0  0
 25  2  1  0  0  0  0
 26 27  1  0  0  0  0
 28 29  1  0  0  0  0
 30 28  1  0  0  0  0
M  END
$$$$
