./IRC/b3lyp/chairs/1/glo_2w_beta_ircr_chair_B3LYP_631Gd.out
 OpenBabel01241715093D
Gaussian 09 # IRC=(CalcFC,Reverse,MaxCycle=500,MaxPoints=10) B3LYP/6-31G(d) geom
 30 27  0  0  1  0  0  0  0  0999 V2000
    0.8896    0.2090   -1.7195 C   0  0  0  0  0  0  0  0  0  0  0  0
    0.8192    0.3639    0.7648 O   0  0  0  0  0  0  0  0  0  0  0  0
    2.0927    0.1330   -1.8920 O   0  0  0  0  0  0  0  0  0  0  0  0
    2.9793    1.6668   -1.6411 H   0  0  0  0  0  0  0  0  0  0  0  0
    1.1501    3.5653    0.5501 H   0  0  0  0  0  0  0  0  0  0  0  0
    4.2749    2.2591   -1.0392 H   0  0  0  0  0  0  0  0  0  0  0  0
    3.3697    2.5024   -1.2856 O   0  0  0  0  0  0  0  0  0  0  0  0
    2.4313    2.8053    0.1232 H   0  0  0  0  0  0  0  0  0  0  0  0
    1.7634    2.8817    0.8589 O   0  0  0  0  0  0  0  0  0  0  0  0
    1.1343    1.2993    0.8920 H   0  0  0  0  0  0  0  0  0  0  0  0
   -0.0226   -1.0090   -1.6916 C   0  0  1  0  0  0  0  0  0  0  0  0
   -1.2852   -0.8391   -0.8254 C   0  0  2  0  0  0  0  0  0  0  0  0
   -1.1149   -1.0107    0.6929 C   0  0  1  0  0  0  0  0  0  0  0  0
   -0.4419    0.1856    1.3755 C   0  0  1  0  0  0  0  0  0  0  0  0
    0.3710    1.1872   -1.7241 H   0  0  0  0  0  0  0  0  0  0  0  0
    0.5576   -1.8814   -1.3593 H   0  0  0  0  0  0  0  0  0  0  0  0
   -0.5106   -1.9138    0.8805 H   0  0  0  0  0  0  0  0  0  0  0  0
   -1.0941    1.0653    1.2288 H   0  0  0  0  0  0  0  0  0  0  0  0
   -1.7192    0.1580   -1.0188 H   0  0  0  0  0  0  0  0  0  0  0  0
   -0.4168   -1.1389   -3.0551 O   0  0  0  0  0  0  0  0  0  0  0  0
   -2.1780   -1.8459   -1.2965 O   0  0  0  0  0  0  0  0  0  0  0  0
   -2.4431   -1.1885    1.1888 O   0  0  0  0  0  0  0  0  0  0  0  0
   -2.8605   -1.9362   -0.6069 H   0  0  0  0  0  0  0  0  0  0  0  0
   -1.2476   -1.6487   -3.0314 H   0  0  0  0  0  0  0  0  0  0  0  0
   -2.3805   -1.1832    2.1649 H   0  0  0  0  0  0  0  0  0  0  0  0
   -0.2372   -0.0451    2.8836 C   0  0  0  0  0  0  0  0  0  0  0  0
   -1.4583   -0.3100    3.5951 O   0  0  0  0  0  0  0  0  0  0  0  0
    0.2912    0.8137    3.3191 H   0  0  0  0  0  0  0  0  0  0  0  0
    0.3899   -0.9299    3.0251 H   0  0  0  0  0  0  0  0  0  0  0  0
   -1.9527    0.5227    3.6600 H   0  0  0  0  0  0  0  0  0  0  0  0
  1 11  1  0  0  0  0
  2 10  1  0  0  0  0
  2 14  1  0  0  0  0
  3  1  2  0  0  0  0
  4  7  1  0  0  0  0
  5  9  1  0  0  0  0
  7  6  1  0  0  0  0
  8  9  1  0  0  0  0
 11 16  1  1  0  0  0
 11 12  1  0  0  0  0
 12 19  1  6  0  0  0
 12 13  1  0  0  0  0
 13 17  1  1  0  0  0
 13 22  1  0  0  0  0
 13 14  1  0  0  0  0
 14 18  1  6  0  0  0
 14 26  1  0  0  0  0
 15  1  1  0  0  0  0
 20 24  1  0  0  0  0
 20 11  1  0  0  0  0
 21 12  1  0  0  0  0
 21 23  1  0  0  0  0
 22 25  1  0  0  0  0
 26 29  1  0  0  0  0
 26 28  1  0  0  0  0
 26 27  1  0  0  0  0
 27 30  1  0  0  0  0
M  END
$$$$
