./IRC/b3lyp/chairs/1/glo_1w_beta_ircr_chair_B3LYP_631Gd.out
 OpenBabel01241715093D
Gaussian 09 # IRC=(CalcFC,Reverse,MaxCycle=500,MaxPoints=10) B3LYP/6-31G(d) geom
 30 28  0  0  1  0  0  0  0  0999 V2000
   -0.0208    1.6436   -0.9590 C   0  0  1  0  0  0  0  0  0  0  0  0
    0.1779    1.6129    0.4895 O   0  0  0  0  0  0  0  0  0  0  0  0
    3.4227    1.3912   -0.1063 H   0  0  0  0  0  0  0  0  0  0  0  0
    0.6370    2.7367   -1.4609 O   0  0  0  0  0  0  0  0  0  0  0  0
    1.5955    2.6291   -1.2726 H   0  0  0  0  0  0  0  0  0  0  0  0
    2.9439    2.2228    0.0301 O   0  0  0  0  0  0  0  0  0  0  0  0
    2.1594    1.9769    0.5580 H   0  0  0  0  0  0  0  0  0  0  0  0
    0.4530    0.2904   -1.5016 C   0  0  1  0  0  0  0  0  0  0  0  0
   -0.3054   -0.8641   -0.8368 C   0  0  2  0  0  0  0  0  0  0  0  0
   -0.1976   -0.7953    0.6894 C   0  0  1  0  0  0  0  0  0  0  0  0
   -0.5873    0.6201    1.1643 C   0  0  1  0  0  0  0  0  0  0  0  0
   -0.3318    0.8574    2.6522 C   0  0  0  0  0  0  0  0  0  0  0  0
   -1.0857   -0.1089    3.3945 O   0  0  0  0  0  0  0  0  0  0  0  0
    0.2594    0.2457   -2.8978 O   0  0  0  0  0  0  0  0  0  0  0  0
    0.2298   -2.0524   -1.3909 O   0  0  0  0  0  0  0  0  0  0  0  0
   -1.0684   -1.7765    1.2581 O   0  0  0  0  0  0  0  0  0  0  0  0
   -1.0904    1.7852   -1.1624 H   0  0  0  0  0  0  0  0  0  0  0  0
    1.5245    0.1916   -1.2498 H   0  0  0  0  0  0  0  0  0  0  0  0
    0.3311   -0.7001   -3.1216 H   0  0  0  0  0  0  0  0  0  0  0  0
   -0.4167   -2.7818   -1.2335 H   0  0  0  0  0  0  0  0  0  0  0  0
   -1.1692   -1.5541    2.2045 H   0  0  0  0  0  0  0  0  0  0  0  0
    0.8463   -0.9998    0.9791 H   0  0  0  0  0  0  0  0  0  0  0  0
   -1.6601    0.7653    0.9592 H   0  0  0  0  0  0  0  0  0  0  0  0
   -0.6345    1.8798    2.9114 H   0  0  0  0  0  0  0  0  0  0  0  0
    0.7452    0.7540    2.8519 H   0  0  0  0  0  0  0  0  0  0  0  0
   -0.8550   -0.0317    4.3320 H   0  0  0  0  0  0  0  0  0  0  0  0
   -1.5829   -3.8941   -0.4395 O   0  0  0  0  0  0  0  0  0  0  0  0
   -1.0393   -4.6382   -0.1381 H   0  0  0  0  0  0  0  0  0  0  0  0
   -1.3721   -0.7634   -1.0983 H   0  0  0  0  0  0  0  0  0  0  0  0
   -1.5805   -3.2696    0.3187 H   0  0  0  0  0  0  0  0  0  0  0  0
  1 17  1  6  0  0  0
  1  2  1  0  0  0  0
  2 11  1  0  0  0  0
  3  6  1  0  0  0  0
  4  5  1  0  0  0  0
  4  1  1  0  0  0  0
  6  7  1  0  0  0  0
  8 18  1  1  0  0  0
  8  1  1  0  0  0  0
  8  9  1  0  0  0  0
  9 29  1  6  0  0  0
  9 10  1  0  0  0  0
 10 22  1  1  0  0  0
 10 11  1  0  0  0  0
 10 16  1  0  0  0  0
 11 23  1  6  0  0  0
 11 12  1  0  0  0  0
 12 25  1  0  0  0  0
 12 24  1  0  0  0  0
 12 13  1  0  0  0  0
 13 26  1  0  0  0  0
 14  8  1  0  0  0  0
 15 20  1  0  0  0  0
 15  9  1  0  0  0  0
 16 21  1  0  0  0  0
 19 14  1  0  0  0  0
 27 28  1  0  0  0  0
 27 30  1  0  0  0  0
M  END
$$$$
