./IRC/b3lyp/chairs/1/glo_1w_alpha_ircr_chair_B3LYP_631Gd.out
 OpenBabel01241715093D
Gaussian 09 # IRC=(CalcFC,Reverse,MaxCycle=1000,MaxPoints=10) B3LYP/6-31G(d) geo
 30 28  0  0  1  0  0  0  0  0999 V2000
    1.2319   -1.0722   -0.9506 C   0  0  1  0  0  0  0  0  0  0  0  0
    1.2090   -1.1035    0.5016 O   0  0  0  0  0  0  0  0  0  0  0  0
    4.5395   -1.4229    0.0700 H   0  0  0  0  0  0  0  0  0  0  0  0
    3.9934   -0.6384    0.2296 O   0  0  0  0  0  0  0  0  0  0  0  0
    3.1896   -0.9721    0.6761 H   0  0  0  0  0  0  0  0  0  0  0  0
   -0.2126   -1.1104   -1.4405 C   0  0  1  0  0  0  0  0  0  0  0  0
   -0.9948    0.0948   -0.9081 C   0  0  2  0  0  0  0  0  0  0  0  0
   -0.8822    0.1483    0.6215 C   0  0  1  0  0  0  0  0  0  0  0  0
    0.5811    0.0432    1.0942 C   0  0  1  0  0  0  0  0  0  0  0  0
   -0.6676   -2.0170   -1.0070 H   0  0  0  0  0  0  0  0  0  0  0  0
   -1.4699   -0.6737    1.0437 H   0  0  0  0  0  0  0  0  0  0  0  0
    1.1175    0.9535    0.7885 H   0  0  0  0  0  0  0  0  0  0  0  0
   -0.5471    1.0075   -1.3329 H   0  0  0  0  0  0  0  0  0  0  0  0
   -0.2507   -1.1571   -2.8486 O   0  0  0  0  0  0  0  0  0  0  0  0
   -2.3234   -0.0843   -1.3651 O   0  0  0  0  0  0  0  0  0  0  0  0
   -1.4910    1.3475    1.1722 O   0  0  0  0  0  0  0  0  0  0  0  0
   -2.8311    0.7473   -1.2227 H   0  0  0  0  0  0  0  0  0  0  0  0
   -1.1776   -0.9671   -3.0775 H   0  0  0  0  0  0  0  0  0  0  0  0
   -0.9404    2.1024    0.8966 H   0  0  0  0  0  0  0  0  0  0  0  0
    0.7138   -0.1152    2.6141 C   0  0  0  0  0  0  0  0  0  0  0  0
    0.3152    1.0483    3.3155 O   0  0  0  0  0  0  0  0  0  0  0  0
    1.7672   -0.2838    2.8595 H   0  0  0  0  0  0  0  0  0  0  0  0
    0.1510   -1.0075    2.9346 H   0  0  0  0  0  0  0  0  0  0  0  0
   -0.5989    1.2374    3.0426 H   0  0  0  0  0  0  0  0  0  0  0  0
    1.7536   -2.0005   -1.2151 H   0  0  0  0  0  0  0  0  0  0  0  0
    1.8831    0.0517   -1.4325 O   0  0  0  0  0  0  0  0  0  0  0  0
    2.8139   -0.0178   -1.1221 H   0  0  0  0  0  0  0  0  0  0  0  0
   -3.7020    2.1040   -0.3798 O   0  0  0  0  0  0  0  0  0  0  0  0
   -4.5782    1.7536   -0.1569 H   0  0  0  0  0  0  0  0  0  0  0  0
   -3.1403    1.8945    0.3951 H   0  0  0  0  0  0  0  0  0  0  0  0
  1 25  1  6  0  0  0
  1  2  1  0  0  0  0
  2  9  1  0  0  0  0
  3  4  1  0  0  0  0
  4  5  1  0  0  0  0
  6 10  1  1  0  0  0
  6  1  1  0  0  0  0
  6  7  1  0  0  0  0
  7 13  1  6  0  0  0
  7  8  1  0  0  0  0
  8 11  1  1  0  0  0
  8  9  1  0  0  0  0
  8 16  1  0  0  0  0
  9 12  1  6  0  0  0
  9 20  1  0  0  0  0
 14  6  1  0  0  0  0
 15 17  1  0  0  0  0
 15  7  1  0  0  0  0
 18 14  1  0  0  0  0
 19 16  1  0  0  0  0
 20 22  1  0  0  0  0
 20 23  1  0  0  0  0
 20 21  1  0  0  0  0
 24 21  1  0  0  0  0
 26 27  1  0  0  0  0
 26  1  1  0  0  0  0
 28 29  1  0  0  0  0
 28 30  1  0  0  0  0
M  END
$$$$
