./IRC/b3lyp/chairs/1/glo_2w_alpha_ircf_chair_B3LYP_631Gd.out
 OpenBabel01251716433D
Gaussian 09 # IRC=(CalcFC,Forward,MaxCycle=500,MaxPoints=10) B3LYP/6-31G(d) geom
 30 28  0  0  1  0  0  0  0  0999 V2000
    0.1564   -0.8918   -1.0131 C   0  0  1  0  0  0  0  0  0  0  0  0
    0.2785   -0.8166    0.4379 O   0  0  0  0  0  0  0  0  0  0  0  0
    2.7409   -1.1191    2.0233 H   0  0  0  0  0  0  0  0  0  0  0  0
    3.8531   -1.4073   -1.5577 H   0  0  0  0  0  0  0  0  0  0  0  0
    3.4675   -0.7035   -1.0154 O   0  0  0  0  0  0  0  0  0  0  0  0
    3.3474   -1.1105   -0.1143 H   0  0  0  0  0  0  0  0  0  0  0  0
    2.7521   -1.8238    1.3460 O   0  0  0  0  0  0  0  0  0  0  0  0
    1.8180   -1.7880    1.0569 H   0  0  0  0  0  0  0  0  0  0  0  0
   -1.3228   -0.6685   -1.3412 C   0  0  1  0  0  0  0  0  0  0  0  0
   -1.7500    0.7047   -0.8263 C   0  0  2  0  0  0  0  0  0  0  0  0
   -1.4437    0.8685    0.6649 C   0  0  1  0  0  0  0  0  0  0  0  0
    0.0196    0.4913    0.9627 C   0  0  1  0  0  0  0  0  0  0  0  0
   -1.8937   -1.4323   -0.7887 H   0  0  0  0  0  0  0  0  0  0  0  0
   -2.1108    0.2120    1.2347 H   0  0  0  0  0  0  0  0  0  0  0  0
    0.6766    1.2180    0.4580 H   0  0  0  0  0  0  0  0  0  0  0  0
   -1.1817    1.4641   -1.3886 H   0  0  0  0  0  0  0  0  0  0  0  0
   -1.5327   -0.7937   -2.7323 O   0  0  0  0  0  0  0  0  0  0  0  0
   -3.1435    0.8358   -1.0857 O   0  0  0  0  0  0  0  0  0  0  0  0
   -1.7712    2.1936    1.0972 O   0  0  0  0  0  0  0  0  0  0  0  0
   -3.4305    1.6592   -0.6573 H   0  0  0  0  0  0  0  0  0  0  0  0
   -2.4430   -0.4933   -2.8912 H   0  0  0  0  0  0  0  0  0  0  0  0
   -1.2126    2.8090    0.5917 H   0  0  0  0  0  0  0  0  0  0  0  0
    0.3300    0.4891    2.4565 C   0  0  0  0  0  0  0  0  0  0  0  0
    1.7302    0.4315    2.7521 O   0  0  0  0  0  0  0  0  0  0  0  0
   -0.1078   -0.3988    2.9215 H   0  0  0  0  0  0  0  0  0  0  0  0
   -0.1245    1.3777    2.9121 H   0  0  0  0  0  0  0  0  0  0  0  0
    2.1374    1.2535    2.4357 H   0  0  0  0  0  0  0  0  0  0  0  0
    0.4523   -1.9246   -1.2373 H   0  0  0  0  0  0  0  0  0  0  0  0
    0.9428    0.0394   -1.6518 O   0  0  0  0  0  0  0  0  0  0  0  0
    1.8969   -0.2130   -1.5154 H   0  0  0  0  0  0  0  0  0  0  0  0
  1 28  1  6  0  0  0
  1  2  1  0  0  0  0
  2 12  1  0  0  0  0
  4  5  1  0  0  0  0
  5  6  1  0  0  0  0
  7  3  1  0  0  0  0
  8  7  1  0  0  0  0
  9  1  1  0  0  0  0
  9 10  1  0  0  0  0
  9 13  1  1  0  0  0
 10 16  1  6  0  0  0
 10 11  1  0  0  0  0
 11 12  1  0  0  0  0
 11 19  1  0  0  0  0
 11 14  1  1  0  0  0
 12 15  1  6  0  0  0
 12 23  1  0  0  0  0
 17  9  1  0  0  0  0
 18 10  1  0  0  0  0
 18 20  1  0  0  0  0
 21 17  1  0  0  0  0
 22 19  1  0  0  0  0
 23 24  1  0  0  0  0
 23 26  1  0  0  0  0
 23 25  1  0  0  0  0
 27 24  1  0  0  0  0
 29 30  1  0  0  0  0
 29  1  1  0  0  0  0
M  END
$$$$
