./IRC/b3lyp/chairs/1/glo_1w_alpha_ircf_chair_B3LYP_631Gd.out
 OpenBabel01241715093D
Gaussian 09 # IRC=(CalcFC,Forward,MaxCycle=1000,MaxPoints=10) B3LYP/6-31G(d) geo
 30 27  0  0  1  0  0  0  0  0999 V2000
    1.3234   -1.0159   -1.6485 C   0  0  0  0  0  0  0  0  0  0  0  0
    1.1874   -1.3085    0.8231 O   0  0  0  0  0  0  0  0  0  0  0  0
    4.4755   -1.1553    0.0834 H   0  0  0  0  0  0  0  0  0  0  0  0
    3.7685   -0.5341    0.3133 O   0  0  0  0  0  0  0  0  0  0  0  0
    2.1686   -1.1947    0.8241 H   0  0  0  0  0  0  0  0  0  0  0  0
   -0.1941   -1.1460   -1.6157 C   0  0  1  0  0  0  0  0  0  0  0  0
   -0.8929    0.0299   -0.9072 C   0  0  2  0  0  0  0  0  0  0  0  0
   -0.7881    0.0231    0.6326 C   0  0  1  0  0  0  0  0  0  0  0  0
    0.6314   -0.0573    1.2205 C   0  0  1  0  0  0  0  0  0  0  0  0
   -0.4497   -2.0856   -1.1036 H   0  0  0  0  0  0  0  0  0  0  0  0
   -1.3844   -0.8142    1.0096 H   0  0  0  0  0  0  0  0  0  0  0  0
    1.2271    0.7765    0.8152 H   0  0  0  0  0  0  0  0  0  0  0  0
   -0.4539    0.9639   -1.2908 H   0  0  0  0  0  0  0  0  0  0  0  0
   -0.5942   -1.1891   -2.9776 O   0  0  0  0  0  0  0  0  0  0  0  0
   -2.2537   -0.0914   -1.3057 O   0  0  0  0  0  0  0  0  0  0  0  0
   -1.4495    1.2100    1.1557 O   0  0  0  0  0  0  0  0  0  0  0  0
   -2.7216    0.7657   -1.1735 H   0  0  0  0  0  0  0  0  0  0  0  0
   -1.5298   -0.9073   -2.9504 H   0  0  0  0  0  0  0  0  0  0  0  0
   -0.8636    1.9652    0.9681 H   0  0  0  0  0  0  0  0  0  0  0  0
    0.6666    0.0293    2.7593 C   0  0  0  0  0  0  0  0  0  0  0  0
    0.3003    1.2966    3.2815 O   0  0  0  0  0  0  0  0  0  0  0  0
    1.6988   -0.1503    3.0766 H   0  0  0  0  0  0  0  0  0  0  0  0
    0.0479   -0.7827    3.1733 H   0  0  0  0  0  0  0  0  0  0  0  0
   -0.6415    1.4059    3.0724 H   0  0  0  0  0  0  0  0  0  0  0  0
    1.8720   -1.9756   -1.7070 H   0  0  0  0  0  0  0  0  0  0  0  0
    1.9197    0.0472   -1.7064 O   0  0  0  0  0  0  0  0  0  0  0  0
    3.4455   -0.1788   -0.5414 H   0  0  0  0  0  0  0  0  0  0  0  0
   -3.5856    2.1294   -0.3763 O   0  0  0  0  0  0  0  0  0  0  0  0
   -4.4798    1.8015   -0.1940 H   0  0  0  0  0  0  0  0  0  0  0  0
   -3.0535    1.8631    0.4027 H   0  0  0  0  0  0  0  0  0  0  0  0
  1  6  1  0  0  0  0
  2  5  1  0  0  0  0
  2  9  1  0  0  0  0
  3  4  1  0  0  0  0
  6 10  1  1  0  0  0
  6  7  1  0  0  0  0
  7 13  1  6  0  0  0
  7  8  1  0  0  0  0
  8 11  1  1  0  0  0
  8 16  1  0  0  0  0
  8  9  1  0  0  0  0
  9 12  1  6  0  0  0
  9 20  1  0  0  0  0
 14 18  1  0  0  0  0
 14  6  1  0  0  0  0
 15 17  1  0  0  0  0
 15  7  1  0  0  0  0
 19 16  1  0  0  0  0
 20 22  1  0  0  0  0
 20 23  1  0  0  0  0
 20 21  1  0  0  0  0
 24 21  1  0  0  0  0
 25  1  1  0  0  0  0
 26  1  2  0  0  0  0
 27  4  1  0  0  0  0
 28 29  1  0  0  0  0
 28 30  1  0  0  0  0
M  END
$$$$
