./IRC/b3lyp/boats/5/glo_1w_beta_ircf_boat5_B3LYP_631Gd.out
 OpenBabel01251716433D
Gaussian 09 # b3lyp/6-31g(d) irc=(calcfc,forward)
 30 28  0  0  1  0  0  0  0  0999 V2000
    1.1637    0.6957   -0.4948 O   0  0  0  0  0  0  0  0  0  0  0  0
    0.5313   -1.0751    1.0269 C   0  0  1  0  0  0  0  0  0  0  0  0
   -1.2659    0.5900    0.0015 C   0  0  2  0  0  0  0  0  0  0  0  0
   -0.9164   -0.8302    0.5436 C   0  0  1  0  0  0  0  0  0  0  0  0
   -0.1396    1.5686    0.2679 C   0  0  2  0  0  0  0  0  0  0  0  0
    1.6008   -0.5222    0.0844 C   0  0  1  0  0  0  0  0  0  0  0  0
   -1.5758   -0.9862    1.4116 H   0  0  0  0  0  0  0  0  0  0  0  0
    2.5063   -0.3664    0.6970 H   0  0  0  0  0  0  0  0  0  0  0  0
    0.6888   -2.1617    1.1225 H   0  0  0  0  0  0  0  0  0  0  0  0
   -1.3293    0.5161   -1.0927 H   0  0  0  0  0  0  0  0  0  0  0  0
    1.9356   -1.4997   -1.0623 C   0  0  0  0  0  0  0  0  0  0  0  0
    2.6789   -1.0292   -1.7221 H   0  0  0  0  0  0  0  0  0  0  0  0
    1.0331   -1.6828   -1.6489 H   0  0  0  0  0  0  0  0  0  0  0  0
    0.2252    1.6100    1.2961 H   0  0  0  0  0  0  0  0  0  0  0  0
   -0.2116    2.7227   -0.3803 O   0  0  0  0  0  0  0  0  0  0  0  0
    2.3751   -2.7748   -0.5995 O   0  0  0  0  0  0  0  0  0  0  0  0
    3.2373   -2.6555   -0.1709 H   0  0  0  0  0  0  0  0  0  0  0  0
   -2.4720    1.0628    0.5617 O   0  0  0  0  0  0  0  0  0  0  0  0
   -3.1873    0.5409    0.1324 H   0  0  0  0  0  0  0  0  0  0  0  0
   -1.2806   -1.7602   -0.4987 O   0  0  0  0  0  0  0  0  0  0  0  0
   -1.1142   -2.6620   -0.1778 H   0  0  0  0  0  0  0  0  0  0  0  0
    0.7394   -0.4426    2.2925 O   0  0  0  0  0  0  0  0  0  0  0  0
    0.0532   -0.7519    2.9057 H   0  0  0  0  0  0  0  0  0  0  0  0
    2.2120    2.8802   -0.4965 O   0  0  0  0  0  0  0  0  0  0  0  0
    2.0497    1.8861   -0.5521 H   0  0  0  0  0  0  0  0  0  0  0  0
    2.4479    3.1508   -1.3965 H   0  0  0  0  0  0  0  0  0  0  0  0
    0.7237    3.1137   -0.3416 H   0  0  0  0  0  0  0  0  0  0  0  0
   -3.9193   -0.8447   -0.8898 O   0  0  0  0  0  0  0  0  0  0  0  0
   -3.0816   -1.3553   -0.9030 H   0  0  0  0  0  0  0  0  0  0  0  0
   -4.0318   -0.5339   -1.8010 H   0  0  0  0  0  0  0  0  0  0  0  0
  1  6  1  0  0  0  0
  1  5  1  0  0  0  0
  2  9  1  1  0  0  0
  2 22  1  0  0  0  0
  3 10  1  6  0  0  0
  3  5  1  0  0  0  0
  3  4  1  0  0  0  0
  3 18  1  0  0  0  0
  4  2  1  0  0  0  0
  4  7  1  1  0  0  0
  5 14  1  1  0  0  0
  6  8  1  1  0  0  0
  6  2  1  0  0  0  0
 11 16  1  0  0  0  0
 11  6  1  0  0  0  0
 12 11  1  0  0  0  0
 13 11  1  0  0  0  0
 15 27  1  0  0  0  0
 15  5  1  0  0  0  0
 16 17  1  0  0  0  0
 19 18  1  0  0  0  0
 20 21  1  0  0  0  0
 20  4  1  0  0  0  0
 22 23  1  0  0  0  0
 25 24  1  0  0  0  0
 26 24  1  0  0  0  0
 29 28  1  0  0  0  0
 30 28  1  0  0  0  0
M  END
$$$$
