./IRC/b3lyp/boats/5/glo_2w_beta_ircf_boat5_B3LYP_631Gd.out
 OpenBabel01241715093D
Gaussian 09 # b3lyp/6-31g(d) irc=(calcfc,forward)
 30 28  0  0  1  0  0  0  0  0999 V2000
    0.3926    0.7035   -0.6465 O   0  0  0  0  0  0  0  0  0  0  0  0
   -1.4163   -0.1805    0.7352 C   0  0  1  0  0  0  0  0  0  0  0  0
    0.2003   -1.7801   -0.3729 C   0  0  2  0  0  0  0  0  0  0  0  0
   -0.4190   -1.3459    0.9604 C   0  0  1  0  0  0  0  0  0  0  0  0
    0.9669   -0.6144   -1.0744 C   0  0  2  0  0  0  0  0  0  0  0  0
   -1.0294    0.6857   -0.4867 C   0  0  1  0  0  0  0  0  0  0  0  0
   -0.9957   -2.1919    1.3567 H   0  0  0  0  0  0  0  0  0  0  0  0
   -1.4777    0.2295   -1.3800 H   0  0  0  0  0  0  0  0  0  0  0  0
   -1.4213    0.4385    1.6410 H   0  0  0  0  0  0  0  0  0  0  0  0
    0.9134   -2.5975   -0.2149 H   0  0  0  0  0  0  0  0  0  0  0  0
   -1.5966    2.1075   -0.3750 C   0  0  0  0  0  0  0  0  0  0  0  0
   -1.2490    2.7105   -1.2199 H   0  0  0  0  0  0  0  0  0  0  0  0
   -1.2266    2.5822    0.5498 H   0  0  0  0  0  0  0  0  0  0  0  0
    0.7596   -0.6440   -2.1635 H   0  0  0  0  0  0  0  0  0  0  0  0
    2.2851   -0.7082   -0.7782 O   0  0  0  0  0  0  0  0  0  0  0  0
   -3.0159    2.0867   -0.4227 O   0  0  0  0  0  0  0  0  0  0  0  0
   -3.3181    1.2942    0.0573 H   0  0  0  0  0  0  0  0  0  0  0  0
   -0.9361   -2.2250   -1.1318 O   0  0  0  0  0  0  0  0  0  0  0  0
   -0.6579   -2.3603   -2.0512 H   0  0  0  0  0  0  0  0  0  0  0  0
    0.6362   -1.0159    1.8689 O   0  0  0  0  0  0  0  0  0  0  0  0
    0.2490   -0.9439    2.7552 H   0  0  0  0  0  0  0  0  0  0  0  0
   -2.7579   -0.6536    0.5942 O   0  0  0  0  0  0  0  0  0  0  0  0
   -2.7458   -1.2543   -0.1735 H   0  0  0  0  0  0  0  0  0  0  0  0
    3.7584    1.2225   -0.3804 O   0  0  0  0  0  0  0  0  0  0  0  0
    3.1785    1.3876    0.4371 H   0  0  0  0  0  0  0  0  0  0  0  0
    4.5694    0.8076   -0.0511 H   0  0  0  0  0  0  0  0  0  0  0  0
    2.8421    0.1350   -0.8664 H   0  0  0  0  0  0  0  0  0  0  0  0
    1.9498    1.3480    1.3006 O   0  0  0  0  0  0  0  0  0  0  0  0
    1.2834    1.3574    0.5785 H   0  0  0  0  0  0  0  0  0  0  0  0
    1.8269    0.4371    1.6292 H   0  0  0  0  0  0  0  0  0  0  0  0
  1  6  1  0  0  0  0
  2  4  1  0  0  0  0
  2  9  1  1  0  0  0
  3 10  1  1  0  0  0
  3  4  1  0  0  0  0
  4  7  1  1  0  0  0
  4 20  1  0  0  0  0
  5 14  1  6  0  0  0
  5 15  1  0  0  0  0
  5  1  1  0  0  0  0
  5  3  1  0  0  0  0
  6  8  1  6  0  0  0
  6 11  1  0  0  0  0
  6  2  1  0  0  0  0
 11 13  1  0  0  0  0
 12 11  1  0  0  0  0
 16 11  1  0  0  0  0
 16 17  1  0  0  0  0
 18  3  1  0  0  0  0
 19 18  1  0  0  0  0
 20 21  1  0  0  0  0
 22  2  1  0  0  0  0
 23 22  1  0  0  0  0
 24 26  1  0  0  0  0
 24 25  1  0  0  0  0
 27 15  1  0  0  0  0
 28 30  1  0  0  0  0
 29 28  1  0  0  0  0
M  END
$$$$
