./TS/b3lyp/boats/4/glo_1w_beta_ts_boat4_B3LYP_631Gd.out
 OpenBabel01241715093D
Gaussian 09 # opt=(calcfc,ts,noeigentest,maxcycle=1000,cartesian) b3lyp 6-31g(d)
 30 27  0  0  1  0  0  0  0  0999 V2000
   -1.7244    0.2925    0.4378 O   0  0  0  0  0  0  0  0  0  0  0  0
    0.6549    0.3899   -0.1536 C   0  0  1  0  0  0  0  0  0  0  0  0
   -0.2546   -1.8147    0.8232 C   0  0  2  0  0  0  0  0  0  0  0  0
    0.9825   -1.0429    0.3229 C   0  0  1  0  0  0  0  0  0  0  0  0
   -1.5378   -1.4668    0.0858 C   0  0  0  0  0  0  0  0  0  0  0  0
   -0.5155    1.0304    0.6190 C   0  0  1  0  0  0  0  0  0  0  0  0
    1.6321   -0.9335    1.2062 H   0  0  0  0  0  0  0  0  0  0  0  0
   -0.2720    1.0168    1.6901 H   0  0  0  0  0  0  0  0  0  0  0  0
    0.3874    0.3308   -1.2185 H   0  0  0  0  0  0  0  0  0  0  0  0
   -2.4539   -1.6945    0.6601 H   0  0  0  0  0  0  0  0  0  0  0  0
   -0.8069    2.4789    0.1863 C   0  0  0  0  0  0  0  0  0  0  0  0
   -0.9990    2.5173   -0.8915 H   0  0  0  0  0  0  0  0  0  0  0  0
   -1.7078    2.8353    0.7023 H   0  0  0  0  0  0  0  0  0  0  0  0
   -0.0554   -2.8802    0.6340 H   0  0  0  0  0  0  0  0  0  0  0  0
   -1.5653   -1.6139   -1.1906 O   0  0  0  0  0  0  0  0  0  0  0  0
    0.2957    3.3699    0.3997 O   0  0  0  0  0  0  0  0  0  0  0  0
    0.4241    3.4619    1.3580 H   0  0  0  0  0  0  0  0  0  0  0  0
   -0.3732   -1.5463    2.2182 O   0  0  0  0  0  0  0  0  0  0  0  0
   -1.2091   -1.9263    2.5318 H   0  0  0  0  0  0  0  0  0  0  0  0
    1.5970   -1.8134   -0.6819 O   0  0  0  0  0  0  0  0  0  0  0  0
    2.4738   -1.4115   -0.8830 H   0  0  0  0  0  0  0  0  0  0  0  0
    1.8484    1.1714    0.0227 O   0  0  0  0  0  0  0  0  0  0  0  0
    1.6028    2.1144   -0.0683 H   0  0  0  0  0  0  0  0  0  0  0  0
   -2.9360    0.2800   -1.6304 O   0  0  0  0  0  0  0  0  0  0  0  0
   -2.3460    0.5191   -0.5977 H   0  0  0  0  0  0  0  0  0  0  0  0
   -2.4083   -0.7671   -1.6194 H   0  0  0  0  0  0  0  0  0  0  0  0
   -2.5533    0.7805   -2.3693 H   0  0  0  0  0  0  0  0  0  0  0  0
    3.9224   -0.3084   -1.0105 O   0  0  0  0  0  0  0  0  0  0  0  0
    4.4934   -0.4881   -0.2482 H   0  0  0  0  0  0  0  0  0  0  0  0
    3.3370    0.4216   -0.7088 H   0  0  0  0  0  0  0  0  0  0  0  0
  1  6  1  0  0  0  0
  2  9  1  6  0  0  0
  2 22  1  0  0  0  0
  2  4  1  0  0  0  0
  2  6  1  0  0  0  0
  3 14  1  6  0  0  0
  3 18  1  0  0  0  0
  4  3  1  0  0  0  0
  4  7  1  1  0  0  0
  5 10  1  0  0  0  0
  5  3  1  0  0  0  0
  6  8  1  1  0  0  0
 11 16  1  0  0  0  0
 11  6  1  0  0  0  0
 11 13  1  0  0  0  0
 12 11  1  0  0  0  0
 15  5  2  0  0  0  0
 16 17  1  0  0  0  0
 18 19  1  0  0  0  0
 20  4  1  0  0  0  0
 21 20  1  0  0  0  0
 23 22  1  0  0  0  0
 24 26  1  0  0  0  0
 25  1  1  0  0  0  0
 27 24  1  0  0  0  0
 28 30  1  0  0  0  0
 28 29  1  0  0  0  0
M  END
$$$$
