./TS/b3lyp/boats/4/glo_2w_alpha_ts_boat4_B3LYP_631Gd.out
 OpenBabel01241715093D
Gaussian 09 # opt=(calcfc,ts,noeigentest,maxcycle=1000,cartesian) freq b3lyp/6-3
 30 27  0  0  1  0  0  0  0  0999 V2000
   -0.6265    0.3225    0.5607 O   0  0  0  0  0  0  0  0  0  0  0  0
    1.6669    0.1825   -0.2470 C   0  0  1  0  0  0  0  0  0  0  0  0
    0.2506   -1.9316   -0.1992 C   0  0  2  0  0  0  0  0  0  0  0  0
    1.5819   -1.2757    0.2064 C   0  0  1  0  0  0  0  0  0  0  0  0
   -0.8775   -0.9303   -0.5141 C   0  0  0  0  0  0  0  0  0  0  0  0
    0.6064    1.0460    0.4578 C   0  0  1  0  0  0  0  0  0  0  0  0
    1.6341   -1.2999    1.3056 H   0  0  0  0  0  0  0  0  0  0  0  0
    0.9694    1.2199    1.4816 H   0  0  0  0  0  0  0  0  0  0  0  0
    1.5210    0.2213   -1.3387 H   0  0  0  0  0  0  0  0  0  0  0  0
    0.4035    2.3958   -0.2467 C   0  0  0  0  0  0  0  0  0  0  0  0
    0.0692    2.2328   -1.2764 H   0  0  0  0  0  0  0  0  0  0  0  0
   -0.3662    2.9900    0.2635 H   0  0  0  0  0  0  0  0  0  0  0  0
    0.4364   -2.4766   -1.1418 H   0  0  0  0  0  0  0  0  0  0  0  0
    1.6375    3.1201   -0.3453 O   0  0  0  0  0  0  0  0  0  0  0  0
    1.8335    3.4893    0.5306 H   0  0  0  0  0  0  0  0  0  0  0  0
   -0.1793   -2.8081    0.8167 O   0  0  0  0  0  0  0  0  0  0  0  0
   -1.1553   -2.7902    0.7429 H   0  0  0  0  0  0  0  0  0  0  0  0
    2.6482   -2.0146   -0.3675 O   0  0  0  0  0  0  0  0  0  0  0  0
    3.4447   -1.4749   -0.2241 H   0  0  0  0  0  0  0  0  0  0  0  0
    2.9751    0.6463    0.0728 O   0  0  0  0  0  0  0  0  0  0  0  0
    3.0228    1.5564   -0.2722 H   0  0  0  0  0  0  0  0  0  0  0  0
   -0.7254   -0.3932   -1.4642 H   0  0  0  0  0  0  0  0  0  0  0  0
   -2.0657   -1.4001   -0.2877 O   0  0  0  0  0  0  0  0  0  0  0  0
   -3.7751    0.2414   -0.8766 O   0  0  0  0  0  0  0  0  0  0  0  0
   -3.0548   -0.5843   -0.7119 H   0  0  0  0  0  0  0  0  0  0  0  0
   -3.3354    1.0096    0.0675 H   0  0  0  0  0  0  0  0  0  0  0  0
   -4.6608   -0.1069   -0.6894 H   0  0  0  0  0  0  0  0  0  0  0  0
   -2.7006    1.5427    0.8634 O   0  0  0  0  0  0  0  0  0  0  0  0
   -1.6728    0.9755    0.7565 H   0  0  0  0  0  0  0  0  0  0  0  0
   -3.0587    1.3098    1.7360 H   0  0  0  0  0  0  0  0  0  0  0  0
  1 29  1  0  0  0  0
  2  9  1  6  0  0  0
  2 20  1  0  0  0  0
  2  4  1  0  0  0  0
  2  6  1  0  0  0  0
  3 13  1  6  0  0  0
  3  4  1  0  0  0  0
  3 16  1  0  0  0  0
  4  7  1  1  0  0  0
  5 23  1  0  0  0  0
  5  3  1  0  0  0  0
  6  1  1  0  0  0  0
  6  8  1  1  0  0  0
 10 12  1  0  0  0  0
 10  6  1  0  0  0  0
 11 10  1  0  0  0  0
 14 10  1  0  0  0  0
 14 15  1  0  0  0  0
 17 16  1  0  0  0  0
 18 19  1  0  0  0  0
 18  4  1  0  0  0  0
 21 20  1  0  0  0  0
 22  5  1  0  0  0  0
 24 25  1  0  0  0  0
 24 27  1  0  0  0  0
 26 28  1  0  0  0  0
 28 30  1  0  0  0  0
M  RAD  2   5   2  23   2
M  END
$$$$
