./opt_IRC/b3lyp/boats/4/glo_1w_alpha_ircf_boat4_B3LYP_631Gd_opt.out
 OpenBabel01251716433D
Gaussian 09 # b3lyp/6-31g(d) opt freq
 30 28  0  0  1  0  0  0  0  0999 V2000
   -1.3243    0.3678   -0.4074 O   0  0  0  0  0  0  0  0  0  0  0  0
    1.0701    0.3547   -0.1649 C   0  0  1  0  0  0  0  0  0  0  0  0
   -0.2912   -1.7044    0.5011 C   0  0  2  0  0  0  0  0  0  0  0  0
    1.0991   -1.1609    0.1507 C   0  0  1  0  0  0  0  0  0  0  0  0
   -1.4122   -1.0785   -0.3332 C   0  0  1  0  0  0  0  0  0  0  0  0
   -0.2448    1.0123    0.2776 C   0  0  1  0  0  0  0  0  0  0  0  0
    1.7134   -1.2884    1.0547 H   0  0  0  0  0  0  0  0  0  0  0  0
   -0.3579    0.9091    1.3651 H   0  0  0  0  0  0  0  0  0  0  0  0
    1.1308    0.4585   -1.2595 H   0  0  0  0  0  0  0  0  0  0  0  0
   -0.3348    2.4869   -0.1284 C   0  0  0  0  0  0  0  0  0  0  0  0
   -0.2099    2.5788   -1.2112 H   0  0  0  0  0  0  0  0  0  0  0  0
   -1.3235    2.8886    0.1340 H   0  0  0  0  0  0  0  0  0  0  0  0
   -0.2890   -2.7837    0.2947 H   0  0  0  0  0  0  0  0  0  0  0  0
    0.7101    3.2761    0.4548 O   0  0  0  0  0  0  0  0  0  0  0  0
    0.5515    3.3221    1.4118 H   0  0  0  0  0  0  0  0  0  0  0  0
   -0.5279   -1.4469    1.8800 O   0  0  0  0  0  0  0  0  0  0  0  0
   -1.4912   -1.5467    1.9907 H   0  0  0  0  0  0  0  0  0  0  0  0
    1.5976   -1.9139   -0.9354 O   0  0  0  0  0  0  0  0  0  0  0  0
    2.5241   -1.6113   -1.0773 H   0  0  0  0  0  0  0  0  0  0  0  0
    2.2072    0.9672    0.4592 O   0  0  0  0  0  0  0  0  0  0  0  0
    2.0859    1.9348    0.3744 H   0  0  0  0  0  0  0  0  0  0  0  0
   -1.3634   -1.4242   -1.3730 H   0  0  0  0  0  0  0  0  0  0  0  0
   -2.6141   -1.4443    0.2767 O   0  0  0  0  0  0  0  0  0  0  0  0
   -4.0578    0.4800   -1.0729 O   0  0  0  0  0  0  0  0  0  0  0  0
   -3.3413   -0.9871   -0.2065 H   0  0  0  0  0  0  0  0  0  0  0  0
   -3.1537    0.8421   -0.9805 H   0  0  0  0  0  0  0  0  0  0  0  0
   -4.5783    0.9546   -0.4065 H   0  0  0  0  0  0  0  0  0  0  0  0
    4.0782   -0.6268   -0.8330 O   0  0  0  0  0  0  0  0  0  0  0  0
    4.6103   -1.0765   -0.1593 H   0  0  0  0  0  0  0  0  0  0  0  0
    3.6233    0.0957   -0.3446 H   0  0  0  0  0  0  0  0  0  0  0  0
  1  5  1  0  0  0  0
  1  6  1  0  0  0  0
  2  9  1  6  0  0  0
  2  4  1  0  0  0  0
  2  6  1  0  0  0  0
  2 20  1  0  0  0  0
  3 13  1  6  0  0  0
  3 16  1  0  0  0  0
  4  3  1  0  0  0  0
  4  7  1  1  0  0  0
  5 22  1  6  0  0  0
  5 23  1  0  0  0  0
  5  3  1  0  0  0  0
  6  8  1  1  0  0  0
 10 12  1  0  0  0  0
 10  6  1  0  0  0  0
 10 14  1  0  0  0  0
 11 10  1  0  0  0  0
 14 15  1  0  0  0  0
 16 17  1  0  0  0  0
 18  4  1  0  0  0  0
 19 18  1  0  0  0  0
 21 20  1  0  0  0  0
 24 26  1  0  0  0  0
 24 27  1  0  0  0  0
 25 23  1  0  0  0  0
 28 30  1  0  0  0  0
 28 29  1  0  0  0  0
M  END
$$$$
