./opt_IRC/b3lyp/boats/4/glo_1w_beta_ircf_boat4_B3LYP_631Gd_opt.out
 OpenBabel01251716433D
Gaussian 09 # b3lyp/6-31g(d) opt freq
 30 28  0  0  1  0  0  0  0  0999 V2000
   -1.6149    0.0541    0.5617 O   0  0  0  0  0  0  0  0  0  0  0  0
    0.7194    0.4430   -0.1712 C   0  0  1  0  0  0  0  0  0  0  0  0
   -0.0397   -1.8305    0.6793 C   0  0  2  0  0  0  0  0  0  0  0  0
    1.1619   -0.9795    0.2220 C   0  0  1  0  0  0  0  0  0  0  0  0
   -1.3727   -1.3069    0.1380 C   0  0  2  0  0  0  0  0  0  0  0  0
   -0.4752    0.9205    0.6727 C   0  0  1  0  0  0  0  0  0  0  0  0
    1.8107   -0.8766    1.1065 H   0  0  0  0  0  0  0  0  0  0  0  0
   -0.1582    0.9480    1.7261 H   0  0  0  0  0  0  0  0  0  0  0  0
    0.4328    0.4243   -1.2303 H   0  0  0  0  0  0  0  0  0  0  0  0
   -2.2134   -1.8529    0.5940 H   0  0  0  0  0  0  0  0  0  0  0  0
   -0.9862    2.3047    0.2491 C   0  0  0  0  0  0  0  0  0  0  0  0
   -1.2564    2.2805   -0.8116 H   0  0  0  0  0  0  0  0  0  0  0  0
   -1.8875    2.5545    0.8256 H   0  0  0  0  0  0  0  0  0  0  0  0
    0.1136   -2.8489    0.3020 H   0  0  0  0  0  0  0  0  0  0  0  0
   -1.3809   -1.4261   -1.2452 O   0  0  0  0  0  0  0  0  0  0  0  0
    0.0018    3.3350    0.3708 O   0  0  0  0  0  0  0  0  0  0  0  0
    0.1626    3.4841    1.3168 H   0  0  0  0  0  0  0  0  0  0  0  0
   -0.0482   -1.7867    2.1067 O   0  0  0  0  0  0  0  0  0  0  0  0
   -0.8091   -2.3014    2.4197 H   0  0  0  0  0  0  0  0  0  0  0  0
    1.8151   -1.6541   -0.8266 O   0  0  0  0  0  0  0  0  0  0  0  0
    2.6599   -1.1817   -1.0089 H   0  0  0  0  0  0  0  0  0  0  0  0
    1.8329    1.3277    0.0392 O   0  0  0  0  0  0  0  0  0  0  0  0
    1.5015    2.2392   -0.0888 H   0  0  0  0  0  0  0  0  0  0  0  0
   -3.7666    0.0149   -1.3098 O   0  0  0  0  0  0  0  0  0  0  0  0
   -3.2478    0.3696   -0.5604 H   0  0  0  0  0  0  0  0  0  0  0  0
   -2.2680   -1.1231   -1.5418 H   0  0  0  0  0  0  0  0  0  0  0  0
   -3.7276    0.7066   -1.9879 H   0  0  0  0  0  0  0  0  0  0  0  0
    4.0198    0.0466   -1.0469 O   0  0  0  0  0  0  0  0  0  0  0  0
    4.5930   -0.1337   -0.2864 H   0  0  0  0  0  0  0  0  0  0  0  0
    3.3770    0.7118   -0.7140 H   0  0  0  0  0  0  0  0  0  0  0  0
  1  6  1  0  0  0  0
  2  9  1  6  0  0  0
  2 22  1  0  0  0  0
  2  4  1  0  0  0  0
  2  6  1  0  0  0  0
  3 14  1  6  0  0  0
  3 18  1  0  0  0  0
  4  3  1  0  0  0  0
  4  7  1  1  0  0  0
  5  1  1  0  0  0  0
  5 10  1  1  0  0  0
  5  3  1  0  0  0  0
  6  8  1  1  0  0  0
 11 16  1  0  0  0  0
 11  6  1  0  0  0  0
 11 13  1  0  0  0  0
 12 11  1  0  0  0  0
 15  5  1  0  0  0  0
 16 17  1  0  0  0  0
 18 19  1  0  0  0  0
 20  4  1  0  0  0  0
 21 20  1  0  0  0  0
 23 22  1  0  0  0  0
 24 25  1  0  0  0  0
 26 15  1  0  0  0  0
 27 24  1  0  0  0  0
 28 30  1  0  0  0  0
 28 29  1  0  0  0  0
M  END
$$$$
