./opt_IRC/b3lyp/boats/4/glo_2w_beta_ircr_boat4_B3LYP_631Gd_opt.out
 OpenBabel01251716433D
Gaussian 09 # b3lyp/6-31g(d) opt freq
 30 28  0  0  1  0  0  0  0  0999 V2000
    0.6093   -0.3197   -0.8501 O   0  0  0  0  0  0  0  0  0  0  0  0
   -1.2864    0.8626    0.2172 C   0  0  1  0  0  0  0  0  0  0  0  0
   -1.2345   -1.6477    0.1220 C   0  0  2  0  0  0  0  0  0  0  0  0
   -2.0594   -0.3915   -0.1765 C   0  0  1  0  0  0  0  0  0  0  0  0
    0.2848   -1.3509    0.1170 C   0  0  2  0  0  0  0  0  0  0  0  0
    0.0015    0.9650   -0.6163 C   0  0  1  0  0  0  0  0  0  0  0  0
   -2.2329   -0.3639   -1.2646 H   0  0  0  0  0  0  0  0  0  0  0  0
   -0.2905    1.3388   -1.6079 H   0  0  0  0  0  0  0  0  0  0  0  0
   -1.0415    0.8052    1.2854 H   0  0  0  0  0  0  0  0  0  0  0  0
    0.8263   -2.2202   -0.2780 H   0  0  0  0  0  0  0  0  0  0  0  0
    1.0169    1.9284    0.0104 C   0  0  0  0  0  0  0  0  0  0  0  0
    1.2767    1.5804    1.0127 H   0  0  0  0  0  0  0  0  0  0  0  0
    1.9388    1.9552   -0.5894 H   0  0  0  0  0  0  0  0  0  0  0  0
   -1.4957   -1.9936    1.1293 H   0  0  0  0  0  0  0  0  0  0  0  0
    0.6846   -1.0093    1.3999 O   0  0  0  0  0  0  0  0  0  0  0  0
    0.4607    3.2384    0.1707 O   0  0  0  0  0  0  0  0  0  0  0  0
    0.3720    3.6313   -0.7126 H   0  0  0  0  0  0  0  0  0  0  0  0
   -1.5703   -2.6167   -0.8658 O   0  0  0  0  0  0  0  0  0  0  0  0
   -1.3433   -3.4915   -0.5157 H   0  0  0  0  0  0  0  0  0  0  0  0
   -3.2874   -0.4622    0.5263 O   0  0  0  0  0  0  0  0  0  0  0  0
   -3.6781    0.4255    0.4517 H   0  0  0  0  0  0  0  0  0  0  0  0
   -2.1353    1.9818   -0.0333 O   0  0  0  0  0  0  0  0  0  0  0  0
   -1.6558    2.7550    0.3126 H   0  0  0  0  0  0  0  0  0  0  0  0
    3.4152   -0.8737    1.3296 O   0  0  0  0  0  0  0  0  0  0  0  0
    3.5865   -0.7181    0.3689 H   0  0  0  0  0  0  0  0  0  0  0  0
    1.6773   -1.0041    1.4358 H   0  0  0  0  0  0  0  0  0  0  0  0
    3.7221   -0.0712    1.7766 H   0  0  0  0  0  0  0  0  0  0  0  0
    3.3220   -0.5115   -1.3665 O   0  0  0  0  0  0  0  0  0  0  0  0
    2.3425   -0.4150   -1.3770 H   0  0  0  0  0  0  0  0  0  0  0  0
    3.6679    0.1725   -1.9571 H   0  0  0  0  0  0  0  0  0  0  0  0
  1  6  1  0  0  0  0
  1  5  1  0  0  0  0
  2  9  1  1  0  0  0
  3 14  1  1  0  0  0
  4  7  1  6  0  0  0
  4  3  1  0  0  0  0
  4  2  1  0  0  0  0
  4 20  1  0  0  0  0
  5 10  1  6  0  0  0
  5  3  1  0  0  0  0
  5 15  1  0  0  0  0
  6  8  1  6  0  0  0
  6 11  1  0  0  0  0
  6  2  1  0  0  0  0
 11 16  1  0  0  0  0
 11 12  1  0  0  0  0
 13 11  1  0  0  0  0
 15 26  1  0  0  0  0
 17 16  1  0  0  0  0
 18 19  1  0  0  0  0
 18  3  1  0  0  0  0
 21 20  1  0  0  0  0
 22  2  1  0  0  0  0
 22 23  1  0  0  0  0
 24 27  1  0  0  0  0
 25 24  1  0  0  0  0
 29 28  1  0  0  0  0
 30 28  1  0  0  0  0
M  END
$$$$
