./opt_IRC/b3lyp/boats/4/glo_1w_alpha_ircr_boat4_B3LYP_631Gd_opt.out
 OpenBabel01241715093D
Gaussian 09 # b3lyp/6-31g(d) opt freq
 30 27  0  0  1  0  0  0  0  0999 V2000
   -1.0267    1.1177   -0.9508 O   0  0  0  0  0  0  0  0  0  0  0  0
    0.9949    0.1232   -0.2200 C   0  0  1  0  0  0  0  0  0  0  0  0
   -1.0158   -1.5525    0.3910 C   0  0  2  0  0  0  0  0  0  0  0  0
    0.4903   -1.2248    0.3612 C   0  0  1  0  0  0  0  0  0  0  0  0
   -1.8184   -1.3706   -0.8856 C   0  0  0  0  0  0  0  0  0  0  0  0
    0.0656    1.3377   -0.0744 C   0  0  1  0  0  0  0  0  0  0  0  0
    0.8069   -1.2301    1.4168 H   0  0  0  0  0  0  0  0  0  0  0  0
   -0.2659    1.4254    0.9725 H   0  0  0  0  0  0  0  0  0  0  0  0
    1.1492   -0.0260   -1.2994 H   0  0  0  0  0  0  0  0  0  0  0  0
    0.7267    2.6587   -0.5150 C   0  0  0  0  0  0  0  0  0  0  0  0
    1.0626    2.5609   -1.5513 H   0  0  0  0  0  0  0  0  0  0  0  0
   -0.0224    3.4599   -0.4799 H   0  0  0  0  0  0  0  0  0  0  0  0
   -1.0107   -2.6448    0.5528 H   0  0  0  0  0  0  0  0  0  0  0  0
    1.8960    3.0207    0.2406 O   0  0  0  0  0  0  0  0  0  0  0  0
    1.6142    3.2478    1.1416 H   0  0  0  0  0  0  0  0  0  0  0  0
   -1.6727   -0.9198    1.4911 O   0  0  0  0  0  0  0  0  0  0  0  0
   -2.5835   -1.2629    1.4649 H   0  0  0  0  0  0  0  0  0  0  0  0
    1.0439   -2.3123   -0.3585 O   0  0  0  0  0  0  0  0  0  0  0  0
    2.0301   -2.2528   -0.3330 H   0  0  0  0  0  0  0  0  0  0  0  0
    2.2576    0.3597    0.4318 O   0  0  0  0  0  0  0  0  0  0  0  0
    2.4765    1.3111    0.3303 H   0  0  0  0  0  0  0  0  0  0  0  0
   -1.2922   -1.5654   -1.8355 H   0  0  0  0  0  0  0  0  0  0  0  0
   -3.0194   -1.1594   -0.8421 O   0  0  0  0  0  0  0  0  0  0  0  0
   -3.2227    1.3935    0.6035 O   0  0  0  0  0  0  0  0  0  0  0  0
   -3.7176    0.7589    0.0544 H   0  0  0  0  0  0  0  0  0  0  0  0
   -1.8546    1.4205   -0.5037 H   0  0  0  0  0  0  0  0  0  0  0  0
   -2.6955    0.7958    1.1694 H   0  0  0  0  0  0  0  0  0  0  0  0
    3.7587   -1.8391   -0.1425 O   0  0  0  0  0  0  0  0  0  0  0  0
    4.0551   -2.1953    0.7089 H   0  0  0  0  0  0  0  0  0  0  0  0
    3.4693   -0.9202    0.0629 H   0  0  0  0  0  0  0  0  0  0  0  0
  1 26  1  0  0  0  0
  1  6  1  0  0  0  0
  2  9  1  6  0  0  0
  2  6  1  0  0  0  0
  2  4  1  0  0  0  0
  2 20  1  0  0  0  0
  3 13  1  1  0  0  0
  3 16  1  0  0  0  0
  4  3  1  0  0  0  0
  4  7  1  1  0  0  0
  5 23  2  0  0  0  0
  5  3  1  0  0  0  0
  6  8  1  1  0  0  0
 10 12  1  0  0  0  0
 10  6  1  0  0  0  0
 10 14  1  0  0  0  0
 11 10  1  0  0  0  0
 14 15  1  0  0  0  0
 17 16  1  0  0  0  0
 18 19  1  0  0  0  0
 18  4  1  0  0  0  0
 21 20  1  0  0  0  0
 22  5  1  0  0  0  0
 24 27  1  0  0  0  0
 25 24  1  0  0  0  0
 28 30  1  0  0  0  0
 28 29  1  0  0  0  0
M  END
$$$$
