./IRC/b3lyp/boats/2/glo_2w_alpha_ircf_boat2_B3LYP_631Gd.out
 OpenBabel01251716433D
Gaussian 09 # b3lyp/6-31g(d) irc=(calcfc,forward)
 30 27  0  0  1  0  0  0  0  0999 V2000
    0.0390   -1.6099    0.3195 C   0  0  0  0  0  0  0  0  0  0  0  0
    0.3932    0.1724    0.8531 O   0  0  0  0  0  0  0  0  0  0  0  0
    2.9121    1.2029    0.4427 H   0  0  0  0  0  0  0  0  0  0  0  0
    3.7339   -2.4224   -0.0392 H   0  0  0  0  0  0  0  0  0  0  0  0
    3.3542   -1.6632   -0.5057 O   0  0  0  0  0  0  0  0  0  0  0  0
    3.2164   -0.3583    0.4371 H   0  0  0  0  0  0  0  0  0  0  0  0
    2.8584    0.3943    0.9936 O   0  0  0  0  0  0  0  0  0  0  0  0
    1.4458    0.2368    0.9420 H   0  0  0  0  0  0  0  0  0  0  0  0
   -1.6521    1.0489   -0.0601 C   0  0  1  0  0  0  0  0  0  0  0  0
   -0.1087    1.0203   -0.1893 C   0  0  1  0  0  0  0  0  0  0  0  0
   -1.9611    1.8925    0.5694 H   0  0  0  0  0  0  0  0  0  0  0  0
    0.1408    0.5689   -1.1599 H   0  0  0  0  0  0  0  0  0  0  0  0
   -2.2405    1.2550   -1.3319 O   0  0  0  0  0  0  0  0  0  0  0  0
   -2.1729    0.3873   -1.7779 H   0  0  0  0  0  0  0  0  0  0  0  0
    0.5170    2.4040   -0.1098 C   0  0  0  0  0  0  0  0  0  0  0  0
    1.8948    2.4343   -0.5133 O   0  0  0  0  0  0  0  0  0  0  0  0
    0.5029    2.7601    0.9245 H   0  0  0  0  0  0  0  0  0  0  0  0
   -0.0747    3.0954   -0.7235 H   0  0  0  0  0  0  0  0  0  0  0  0
    1.9299    2.2813   -1.4711 H   0  0  0  0  0  0  0  0  0  0  0  0
    0.3349   -1.9529    1.3198 H   0  0  0  0  0  0  0  0  0  0  0  0
    0.7454   -1.8593   -0.6861 O   0  0  0  0  0  0  0  0  0  0  0  0
    2.3903   -1.8782   -0.6289 H   0  0  0  0  0  0  0  0  0  0  0  0
   -1.4773   -1.4905    0.0525 C   0  0  1  0  0  0  0  0  0  0  0  0
   -1.9399   -2.3837    0.5028 H   0  0  0  0  0  0  0  0  0  0  0  0
   -2.1652   -0.2372    0.6336 C   0  0  1  0  0  0  0  0  0  0  0  0
   -3.2360   -0.3086    0.4194 H   0  0  0  0  0  0  0  0  0  0  0  0
   -1.6611   -1.4906   -1.3575 O   0  0  0  0  0  0  0  0  0  0  0  0
   -0.7831   -1.7663   -1.7075 H   0  0  0  0  0  0  0  0  0  0  0  0
   -2.0442   -0.1812    2.0453 O   0  0  0  0  0  0  0  0  0  0  0  0
   -1.1096    0.0242    2.2215 H   0  0  0  0  0  0  0  0  0  0  0  0
  1 20  1  0  0  0  0
  2  8  1  0  0  0  0
  3  7  1  0  0  0  0
  5  4  1  0  0  0  0
  6  7  1  0  0  0  0
  9 11  1  1  0  0  0
  9 25  1  0  0  0  0
 10 12  1  6  0  0  0
 10 15  1  0  0  0  0
 10  9  1  0  0  0  0
 10  2  1  0  0  0  0
 13  9  1  0  0  0  0
 14 13  1  0  0  0  0
 15 17  1  0  0  0  0
 16 15  1  0  0  0  0
 18 15  1  0  0  0  0
 19 16  1  0  0  0  0
 21  1  2  0  0  0  0
 22  5  1  0  0  0  0
 23  1  1  0  0  0  0
 23 24  1  1  0  0  0
 23 25  1  0  0  0  0
 25 26  1  6  0  0  0
 25 29  1  0  0  0  0
 27 23  1  0  0  0  0
 28 27  1  0  0  0  0
 29 30  1  0  0  0  0
M  END
$$$$
