./IRC/b3lyp/boats/2/glo_2w_beta_ircf_boat2_B3LYP_631Gd.out
 OpenBabel01241715093D
Gaussian 09 # b3lyp/6-31g(d) irc=(calcfc,forward)
 30 27  0  0  1  0  0  0  0  0999 V2000
    1.0022   -0.3611   -1.4445 C   0  0  0  0  0  0  0  0  0  0  0  0
   -0.3219    0.7820   -0.7736 O   0  0  0  0  0  0  0  0  0  0  0  0
    0.6236    3.1694    0.9441 H   0  0  0  0  0  0  0  0  0  0  0  0
    2.9977    0.6635    1.0661 H   0  0  0  0  0  0  0  0  0  0  0  0
    3.0417    1.3785    0.4056 O   0  0  0  0  0  0  0  0  0  0  0  0
    1.8070    2.0470    0.6926 H   0  0  0  0  0  0  0  0  0  0  0  0
    0.7948    2.2166    0.9116 O   0  0  0  0  0  0  0  0  0  0  0  0
    0.0898    1.4765   -0.1472 H   0  0  0  0  0  0  0  0  0  0  0  0
   -1.1051   -0.8387    0.9538 C   0  0  1  0  0  0  0  0  0  0  0  0
   -1.4495    0.1300   -0.2146 C   0  0  1  0  0  0  0  0  0  0  0  0
   -1.3503   -0.3721    1.9165 H   0  0  0  0  0  0  0  0  0  0  0  0
   -1.8540   -0.4871   -1.0284 H   0  0  0  0  0  0  0  0  0  0  0  0
   -1.9336   -1.9911    0.8724 O   0  0  0  0  0  0  0  0  0  0  0  0
   -1.6188   -2.4696    0.0832 H   0  0  0  0  0  0  0  0  0  0  0  0
   -2.5001    1.1543    0.2069 C   0  0  0  0  0  0  0  0  0  0  0  0
   -2.8965    2.0356   -0.8260 O   0  0  0  0  0  0  0  0  0  0  0  0
   -2.0843    1.7918    0.9959 H   0  0  0  0  0  0  0  0  0  0  0  0
   -3.3515    0.6056    0.6409 H   0  0  0  0  0  0  0  0  0  0  0  0
   -3.2779    1.5066   -1.5441 H   0  0  0  0  0  0  0  0  0  0  0  0
    2.7847    0.9132   -0.4499 H   0  0  0  0  0  0  0  0  0  0  0  0
    0.9745   -1.5025   -0.3960 C   0  0  1  0  0  0  0  0  0  0  0  0
    2.0196   -1.8193   -0.2851 H   0  0  0  0  0  0  0  0  0  0  0  0
    0.3917   -1.2249    1.0089 C   0  0  1  0  0  0  0  0  0  0  0  0
    0.4257   -2.1773    1.5544 H   0  0  0  0  0  0  0  0  0  0  0  0
    0.1950   -2.5541   -1.0070 O   0  0  0  0  0  0  0  0  0  0  0  0
    0.5213   -3.4028   -0.6699 H   0  0  0  0  0  0  0  0  0  0  0  0
    1.1976   -0.3201    1.7524 O   0  0  0  0  0  0  0  0  0  0  0  0
    0.8125    0.5773    1.7329 H   0  0  0  0  0  0  0  0  0  0  0  0
    2.0074    0.3458   -1.6227 O   0  0  0  0  0  0  0  0  0  0  0  0
    0.3525   -0.5977   -2.3025 H   0  0  0  0  0  0  0  0  0  0  0  0
  1 21  1  0  0  0  0
  2 10  1  0  0  0  0
  2  8  1  0  0  0  0
  5  4  1  0  0  0  0
  6  7  1  0  0  0  0
  7  3  1  0  0  0  0
  9 23  1  0  0  0  0
  9 11  1  1  0  0  0
 10 12  1  6  0  0  0
 10 15  1  0  0  0  0
 10  9  1  0  0  0  0
 13  9  1  0  0  0  0
 14 13  1  0  0  0  0
 15 18  1  0  0  0  0
 15 17  1  0  0  0  0
 16 15  1  0  0  0  0
 19 16  1  0  0  0  0
 20  5  1  0  0  0  0
 21 22  1  1  0  0  0
 21 23  1  0  0  0  0
 23 24  1  1  0  0  0
 23 27  1  0  0  0  0
 25 26  1  0  0  0  0
 25 21  1  0  0  0  0
 28 27  1  0  0  0  0
 29  1  2  0  0  0  0
 30  1  1  0  0  0  0
M  END
$$$$
