./IRC/b3lyp/boats/2/glo_1w_beta_ircr_boat2_B3LYP_631Gd.out
 OpenBabel01241715093D
Gaussian 09 # b3lyp/6-31g(d) irc=(calcfc,reverse)
 30 27  0  0  1  0  0  0  0  0999 V2000
    1.7150   -0.6798   -1.0936 C   0  0  0  0  0  0  0  0  0  0  0  0
    0.9279    1.0683   -0.8370 O   0  0  0  0  0  0  0  0  0  0  0  0
    3.3552    1.9385    0.5079 H   0  0  0  0  0  0  0  0  0  0  0  0
    2.8573   -0.5578   -0.6247 O   0  0  0  0  0  0  0  0  0  0  0  0
    2.9078    0.4443    0.5584 H   0  0  0  0  0  0  0  0  0  0  0  0
    2.6600    1.3658    0.8691 O   0  0  0  0  0  0  0  0  0  0  0  0
    1.5358    1.3811   -0.0715 H   0  0  0  0  0  0  0  0  0  0  0  0
   -0.6669    0.2995    0.8359 C   0  0  1  0  0  0  0  0  0  0  0  0
   -0.4390    1.0502   -0.4887 C   0  0  1  0  0  0  0  0  0  0  0  0
   -0.9366    2.4923   -0.4425 C   0  0  0  0  0  0  0  0  0  0  0  0
   -2.3491    2.5505   -0.1856 O   0  0  0  0  0  0  0  0  0  0  0  0
   -2.0706    0.0859    1.0557 O   0  0  0  0  0  0  0  0  0  0  0  0
    1.5481   -0.5905   -2.1804 H   0  0  0  0  0  0  0  0  0  0  0  0
   -2.5060    0.9382    0.8406 H   0  0  0  0  0  0  0  0  0  0  0  0
   -0.2705    0.9228    1.6545 H   0  0  0  0  0  0  0  0  0  0  0  0
   -0.9537    0.5019   -1.2833 H   0  0  0  0  0  0  0  0  0  0  0  0
   -0.6797    3.0032   -1.3785 H   0  0  0  0  0  0  0  0  0  0  0  0
   -0.4606    3.0347    0.3817 H   0  0  0  0  0  0  0  0  0  0  0  0
   -2.8076    2.3213   -1.0100 H   0  0  0  0  0  0  0  0  0  0  0  0
   -2.8254   -2.2656   -0.2278 O   0  0  0  0  0  0  0  0  0  0  0  0
   -2.7332   -1.4075    0.2454 H   0  0  0  0  0  0  0  0  0  0  0  0
   -3.0108   -2.9145    0.4671 H   0  0  0  0  0  0  0  0  0  0  0  0
    0.0628   -1.0683    0.9074 C   0  0  1  0  0  0  0  0  0  0  0  0
   -0.6911   -1.8033    1.2289 H   0  0  0  0  0  0  0  0  0  0  0  0
    0.6311   -1.5598   -0.4405 C   0  0  1  0  0  0  0  0  0  0  0  0
    1.1592   -2.5035   -0.2239 H   0  0  0  0  0  0  0  0  0  0  0  0
    1.1550   -1.0538    1.8139 O   0  0  0  0  0  0  0  0  0  0  0  0
    0.8370   -0.7356    2.6728 H   0  0  0  0  0  0  0  0  0  0  0  0
   -0.3816   -1.7428   -1.4106 O   0  0  0  0  0  0  0  0  0  0  0  0
   -1.1722   -2.1665   -1.0059 H   0  0  0  0  0  0  0  0  0  0  0  0
  1  4  2  0  0  0  0
  1 25  1  0  0  0  0
  2  9  1  0  0  0  0
  2  7  1  0  0  0  0
  3  6  1  0  0  0  0
  5  6  1  0  0  0  0
  8 23  1  0  0  0  0
  8 12  1  0  0  0  0
  8 15  1  1  0  0  0
  9 16  1  6  0  0  0
  9 10  1  0  0  0  0
  9  8  1  0  0  0  0
 10 11  1  0  0  0  0
 10 18  1  0  0  0  0
 13  1  1  0  0  0  0
 14 12  1  0  0  0  0
 17 10  1  0  0  0  0
 19 11  1  0  0  0  0
 20 21  1  0  0  0  0
 20 22  1  0  0  0  0
 23 24  1  1  0  0  0
 23 27  1  0  0  0  0
 25 26  1  1  0  0  0
 25 23  1  0  0  0  0
 27 28  1  0  0  0  0
 29 30  1  0  0  0  0
 29 25  1  0  0  0  0
M  END
$$$$
