./IRC/b3lyp/boats/2/glo_1w_beta_ircf_boat2_B3LYP_631Gd.out
 OpenBabel01251716433D
Gaussian 09 # b3lyp/6-31g(d) irc=(calcfc,forward)
 30 28  0  0  1  0  0  0  0  0999 V2000
    1.6270   -0.5738   -1.0739 C   0  0  1  0  0  0  0  0  0  0  0  0
    0.9460    1.0040   -0.8497 O   0  0  0  0  0  0  0  0  0  0  0  0
    3.3336    1.9655    0.5137 H   0  0  0  0  0  0  0  0  0  0  0  0
    2.8737   -0.5354   -0.6074 O   0  0  0  0  0  0  0  0  0  0  0  0
    2.9071    0.0252    0.2395 H   0  0  0  0  0  0  0  0  0  0  0  0
    2.6517    1.3711    0.8639 O   0  0  0  0  0  0  0  0  0  0  0  0
    1.8804    1.4664    0.2299 H   0  0  0  0  0  0  0  0  0  0  0  0
   -0.6669    0.2983    0.8333 C   0  0  1  0  0  0  0  0  0  0  0  0
   -0.4302    1.0304   -0.5022 C   0  0  1  0  0  0  0  0  0  0  0  0
   -0.9255    2.4880   -0.4446 C   0  0  0  0  0  0  0  0  0  0  0  0
   -2.3441    2.5481   -0.1863 O   0  0  0  0  0  0  0  0  0  0  0  0
   -2.0711    0.0850    1.0573 O   0  0  0  0  0  0  0  0  0  0  0  0
    1.5954   -0.6484   -2.1630 H   0  0  0  0  0  0  0  0  0  0  0  0
   -2.5045    0.9364    0.8351 H   0  0  0  0  0  0  0  0  0  0  0  0
   -0.2672    0.9251    1.6473 H   0  0  0  0  0  0  0  0  0  0  0  0
   -1.0048    0.5052   -1.2756 H   0  0  0  0  0  0  0  0  0  0  0  0
   -0.6749    3.0053   -1.3786 H   0  0  0  0  0  0  0  0  0  0  0  0
   -0.4538    3.0289    0.3821 H   0  0  0  0  0  0  0  0  0  0  0  0
   -2.8015    2.3145   -1.0103 H   0  0  0  0  0  0  0  0  0  0  0  0
   -2.8249   -2.2652   -0.2278 O   0  0  0  0  0  0  0  0  0  0  0  0
   -2.7328   -1.4057    0.2445 H   0  0  0  0  0  0  0  0  0  0  0  0
   -3.0100   -2.9130    0.4682 H   0  0  0  0  0  0  0  0  0  0  0  0
    0.0596   -1.0698    0.9093 C   0  0  1  0  0  0  0  0  0  0  0  0
   -0.6914   -1.8074    1.2306 H   0  0  0  0  0  0  0  0  0  0  0  0
    0.6287   -1.5517   -0.4413 C   0  0  1  0  0  0  0  0  0  0  0  0
    1.1900   -2.4791   -0.2418 H   0  0  0  0  0  0  0  0  0  0  0  0
    1.1554   -1.0560    1.8127 O   0  0  0  0  0  0  0  0  0  0  0  0
    0.8452   -0.7226    2.6684 H   0  0  0  0  0  0  0  0  0  0  0  0
   -0.3815   -1.7462   -1.4104 O   0  0  0  0  0  0  0  0  0  0  0  0
   -1.1761   -2.1608   -1.0024 H   0  0  0  0  0  0  0  0  0  0  0  0
  1 13  1  6  0  0  0
  1  2  1  0  0  0  0
  1  4  1  0  0  0  0
  1 25  1  0  0  0  0
  2  9  1  0  0  0  0
  3  6  1  0  0  0  0
  4  5  1  0  0  0  0
  7  6  1  0  0  0  0
  8 23  1  0  0  0  0
  8 12  1  0  0  0  0
  8 15  1  1  0  0  0
  9 16  1  6  0  0  0
  9 10  1  0  0  0  0
  9  8  1  0  0  0  0
 10 11  1  0  0  0  0
 10 18  1  0  0  0  0
 14 12  1  0  0  0  0
 17 10  1  0  0  0  0
 19 11  1  0  0  0  0
 20 21  1  0  0  0  0
 20 22  1  0  0  0  0
 23 24  1  1  0  0  0
 23 27  1  0  0  0  0
 25 26  1  1  0  0  0
 25 23  1  0  0  0  0
 27 28  1  0  0  0  0
 29 30  1  0  0  0  0
 29 25  1  0  0  0  0
M  END
$$$$
