./IRC/b3lyp/boats/3/glo_2w_alpha_ircf_boat3_B3LYP_631Gd.out
 OpenBabel01241715093D
Gaussian 09 # b3lyp/6-31g(d) irc=(calcfc,forward)
 30 28  0  0  1  0  0  0  0  0999 V2000
    1.0245    0.2275    1.0914 C   0  0  2  0  0  0  0  0  0  0  0  0
    0.4681   -1.5058   -0.7494 C   0  0  1  0  0  0  0  0  0  0  0  0
   -0.5256    0.6791   -0.7884 O   0  0  0  0  0  0  0  0  0  0  0  0
   -0.8965   -0.8342   -0.6566 C   0  0  2  0  0  0  0  0  0  0  0  0
    0.5151    1.2421    0.0601 C   0  0  2  0  0  0  0  0  0  0  0  0
    1.3514   -1.1538    0.4594 C   0  0  1  0  0  0  0  0  0  0  0  0
    1.1677   -1.9022    1.2419 H   0  0  0  0  0  0  0  0  0  0  0  0
    0.9443   -1.0748   -1.6410 H   0  0  0  0  0  0  0  0  0  0  0  0
    0.0578    2.0700    0.6210 H   0  0  0  0  0  0  0  0  0  0  0  0
    1.9456    0.6433    1.5157 H   0  0  0  0  0  0  0  0  0  0  0  0
    1.6225    1.8070   -0.8474 C   0  0  0  0  0  0  0  0  0  0  0  0
    1.1591    2.4106   -1.6422 H   0  0  0  0  0  0  0  0  0  0  0  0
    2.1796    0.9942   -1.3183 H   0  0  0  0  0  0  0  0  0  0  0  0
    2.5831    2.5522   -0.1074 O   0  0  0  0  0  0  0  0  0  0  0  0
    2.1399    3.3388    0.2484 H   0  0  0  0  0  0  0  0  0  0  0  0
    0.3053   -2.9039   -0.9100 O   0  0  0  0  0  0  0  0  0  0  0  0
    1.1984   -3.2682   -1.0207 H   0  0  0  0  0  0  0  0  0  0  0  0
    2.6932   -1.2561   -0.0304 O   0  0  0  0  0  0  0  0  0  0  0  0
    3.2959   -1.1534    0.7230 H   0  0  0  0  0  0  0  0  0  0  0  0
    0.1181    0.0864    2.1709 O   0  0  0  0  0  0  0  0  0  0  0  0
   -0.6524   -0.4014    1.8115 H   0  0  0  0  0  0  0  0  0  0  0  0
   -1.4761   -0.9690   -1.5759 H   0  0  0  0  0  0  0  0  0  0  0  0
   -1.6034   -1.1190    0.4605 O   0  0  0  0  0  0  0  0  0  0  0  0
   -2.6404    1.9001   -0.5448 O   0  0  0  0  0  0  0  0  0  0  0  0
   -1.7445    1.4605   -0.6979 H   0  0  0  0  0  0  0  0  0  0  0  0
   -2.9800    2.1336   -1.4213 H   0  0  0  0  0  0  0  0  0  0  0  0
   -3.8111   -0.0551    0.3274 O   0  0  0  0  0  0  0  0  0  0  0  0
   -2.5731   -0.7701    0.3955 H   0  0  0  0  0  0  0  0  0  0  0  0
   -3.4489    0.8415    0.0115 H   0  0  0  0  0  0  0  0  0  0  0  0
   -4.1337    0.0781    1.2313 H   0  0  0  0  0  0  0  0  0  0  0  0
  1 10  1  1  0  0  0
  1 20  1  0  0  0  0
  2  8  1  6  0  0  0
  2  4  1  0  0  0  0
  2  6  1  0  0  0  0
  3  4  1  0  0  0  0
  3  5  1  0  0  0  0
  4 22  1  6  0  0  0
  4 23  1  0  0  0  0
  5  9  1  1  0  0  0
  5  1  1  0  0  0  0
  6  1  1  0  0  0  0
  6  7  1  1  0  0  0
 11 14  1  0  0  0  0
 11  5  1  0  0  0  0
 12 11  1  0  0  0  0
 13 11  1  0  0  0  0
 14 15  1  0  0  0  0
 16  2  1  0  0  0  0
 17 16  1  0  0  0  0
 18  6  1  0  0  0  0
 18 19  1  0  0  0  0
 21 20  1  0  0  0  0
 25 24  1  0  0  0  0
 26 24  1  0  0  0  0
 27 30  1  0  0  0  0
 28 23  1  0  0  0  0
 29 27  1  0  0  0  0
M  END
$$$$
