./IRC/b3lyp/boats/3/glo_2w_alpha_ircr_boat3_B3LYP_631Gd.out
 OpenBabel01251716433D
Gaussian 09 # b3lyp/6-31g(d) irc=(calcfc,reverse)
 30 27  0  0  1  0  0  0  0  0999 V2000
    1.0212    0.2281    1.0902 C   0  0  2  0  0  0  0  0  0  0  0  0
    0.4740   -1.5066   -0.7560 C   0  0  1  0  0  0  0  0  0  0  0  0
   -0.5069    0.7331   -0.8036 O   0  0  0  0  0  0  0  0  0  0  0  0
   -0.9346   -0.9440   -0.6289 C   0  0  0  0  0  0  0  0  0  0  0  0
    0.5258    1.2663    0.0674 C   0  0  2  0  0  0  0  0  0  0  0  0
    1.3500   -1.1526    0.4563 C   0  0  1  0  0  0  0  0  0  0  0  0
    1.1644   -1.8995    1.2389 H   0  0  0  0  0  0  0  0  0  0  0  0
    0.9419   -1.0712   -1.6505 H   0  0  0  0  0  0  0  0  0  0  0  0
    0.0749    2.0894    0.6363 H   0  0  0  0  0  0  0  0  0  0  0  0
    1.9447    0.6434    1.5111 H   0  0  0  0  0  0  0  0  0  0  0  0
    1.6282    1.8141   -0.8453 C   0  0  0  0  0  0  0  0  0  0  0  0
    1.1646    2.4160   -1.6413 H   0  0  0  0  0  0  0  0  0  0  0  0
    2.1780    0.9949   -1.3143 H   0  0  0  0  0  0  0  0  0  0  0  0
    2.5880    2.5538   -0.1067 O   0  0  0  0  0  0  0  0  0  0  0  0
    2.1492    3.3455    0.2428 H   0  0  0  0  0  0  0  0  0  0  0  0
    0.3118   -2.9066   -0.9127 O   0  0  0  0  0  0  0  0  0  0  0  0
    1.2026   -3.2738   -1.0314 H   0  0  0  0  0  0  0  0  0  0  0  0
    2.6934   -1.2548   -0.0302 O   0  0  0  0  0  0  0  0  0  0  0  0
    3.2950   -1.1584    0.7248 H   0  0  0  0  0  0  0  0  0  0  0  0
    0.1175    0.0878    2.1695 O   0  0  0  0  0  0  0  0  0  0  0  0
   -0.6402   -0.4235    1.8038 H   0  0  0  0  0  0  0  0  0  0  0  0
   -1.4955   -0.9772   -1.5772 H   0  0  0  0  0  0  0  0  0  0  0  0
   -1.5714   -1.1329    0.4564 O   0  0  0  0  0  0  0  0  0  0  0  0
   -2.6470    1.9226   -0.5490 O   0  0  0  0  0  0  0  0  0  0  0  0
   -1.4029    1.2741   -0.7076 H   0  0  0  0  0  0  0  0  0  0  0  0
   -3.0333    2.1343   -1.4126 H   0  0  0  0  0  0  0  0  0  0  0  0
   -3.8531   -0.0759    0.3430 O   0  0  0  0  0  0  0  0  0  0  0  0
   -3.0070   -0.6395    0.4120 H   0  0  0  0  0  0  0  0  0  0  0  0
   -3.2462    1.1944   -0.1432 H   0  0  0  0  0  0  0  0  0  0  0  0
   -4.1713    0.0169    1.2537 H   0  0  0  0  0  0  0  0  0  0  0  0
  1 10  1  1  0  0  0
  1 20  1  0  0  0  0
  2  8  1  6  0  0  0
  2  4  1  0  0  0  0
  2  6  1  0  0  0  0
  3 25  1  0  0  0  0
  3  5  1  0  0  0  0
  4 23  2  0  0  0  0
  5  9  1  1  0  0  0
  5  1  1  0  0  0  0
  6  1  1  0  0  0  0
  6  7  1  1  0  0  0
 11 14  1  0  0  0  0
 11  5  1  0  0  0  0
 12 11  1  0  0  0  0
 13 11  1  0  0  0  0
 14 15  1  0  0  0  0
 16  2  1  0  0  0  0
 17 16  1  0  0  0  0
 18  6  1  0  0  0  0
 18 19  1  0  0  0  0
 21 20  1  0  0  0  0
 22  4  1  0  0  0  0
 24 29  1  0  0  0  0
 26 24  1  0  0  0  0
 27 28  1  0  0  0  0
 27 30  1  0  0  0  0
M  END
$$$$
