./IRC/b3lyp/boats/3/glo_1w_beta_ircf_boat3_B3LYP_631Gd.out
 OpenBabel01241715093D
Gaussian 09 # b3lyp/6-31g(d) irc=(calcfc,forward)
 30 28  0  0  1  0  0  0  0  0999 V2000
   -0.7710   -0.5725    0.1536 C   0  0  2  0  0  0  0  0  0  0  0  0
   -0.2803    1.8539   -0.0640 C   0  0  1  0  0  0  0  0  0  0  0  0
    1.4470    0.2846    0.7907 O   0  0  0  0  0  0  0  0  0  0  0  0
    1.1690    1.3306   -0.1555 C   0  0  1  0  0  0  0  0  0  0  0  0
    0.6049   -0.8926    0.7569 C   0  0  2  0  0  0  0  0  0  0  0  0
   -1.1730    0.8259    0.6219 C   0  0  1  0  0  0  0  0  0  0  0  0
    1.8471    2.1329    0.1578 H   0  0  0  0  0  0  0  0  0  0  0  0
   -1.0264    0.9034    1.7071 H   0  0  0  0  0  0  0  0  0  0  0  0
   -0.6392    1.9928   -1.0941 H   0  0  0  0  0  0  0  0  0  0  0  0
    0.4477   -1.1658    1.8078 H   0  0  0  0  0  0  0  0  0  0  0  0
   -0.6964   -0.5684   -0.9432 H   0  0  0  0  0  0  0  0  0  0  0  0
    1.2814   -2.0823    0.0636 C   0  0  0  0  0  0  0  0  0  0  0  0
    2.3076   -2.1885    0.4332 H   0  0  0  0  0  0  0  0  0  0  0  0
    1.3387   -1.8926   -1.0206 H   0  0  0  0  0  0  0  0  0  0  0  0
    1.4031    0.9174   -1.4684 O   0  0  0  0  0  0  0  0  0  0  0  0
    0.6001   -3.2885    0.3616 O   0  0  0  0  0  0  0  0  0  0  0  0
   -0.3531   -3.0819    0.3558 H   0  0  0  0  0  0  0  0  0  0  0  0
   -0.2601    3.0907    0.6333 O   0  0  0  0  0  0  0  0  0  0  0  0
   -1.1815    3.3918    0.6886 H   0  0  0  0  0  0  0  0  0  0  0  0
   -2.5427    1.1521    0.3122 O   0  0  0  0  0  0  0  0  0  0  0  0
   -3.0911    0.6705    0.9541 H   0  0  0  0  0  0  0  0  0  0  0  0
   -1.6926   -1.5775    0.5689 O   0  0  0  0  0  0  0  0  0  0  0  0
   -2.4084   -1.5824   -0.1094 H   0  0  0  0  0  0  0  0  0  0  0  0
    3.8982    0.0639   -0.5878 O   0  0  0  0  0  0  0  0  0  0  0  0
    2.3506    0.6524   -1.5008 H   0  0  0  0  0  0  0  0  0  0  0  0
    3.3199   -0.0057    0.1982 H   0  0  0  0  0  0  0  0  0  0  0  0
    4.5974    0.6867   -0.3375 H   0  0  0  0  0  0  0  0  0  0  0  0
   -3.5156   -0.8690   -1.3787 O   0  0  0  0  0  0  0  0  0  0  0  0
   -3.2666    0.0395   -1.1086 H   0  0  0  0  0  0  0  0  0  0  0  0
   -3.2320   -0.9521   -2.3017 H   0  0  0  0  0  0  0  0  0  0  0  0
  1 11  1  6  0  0  0
  1 22  1  0  0  0  0
  1  6  1  0  0  0  0
  1  5  1  0  0  0  0
  2  9  1  6  0  0  0
  2  6  1  0  0  0  0
  2 18  1  0  0  0  0
  4  2  1  0  0  0  0
  4  7  1  1  0  0  0
  4  3  1  0  0  0  0
  5  3  1  0  0  0  0
  5 10  1  1  0  0  0
  6  8  1  1  0  0  0
 12 16  1  0  0  0  0
 12 13  1  0  0  0  0
 12  5  1  0  0  0  0
 14 12  1  0  0  0  0
 15  4  1  0  0  0  0
 17 16  1  0  0  0  0
 18 19  1  0  0  0  0
 20  6  1  0  0  0  0
 20 21  1  0  0  0  0
 23 22  1  0  0  0  0
 24 27  1  0  0  0  0
 24 26  1  0  0  0  0
 25 15  1  0  0  0  0
 28 29  1  0  0  0  0
 30 28  1  0  0  0  0
M  END
$$$$
