./opt_IRC/b3lyp/boats/5/glo_2w_beta_ircr_boat5_B3LYP_631Gd_opt.out
 OpenBabel01251716433D
Gaussian 09 # b3lyp/6-31g(d) opt freq
 30 27  0  0  1  0  0  0  0  0999 V2000
    0.1796    1.0384   -0.8169 O   0  0  0  0  0  0  0  0  0  0  0  0
   -1.3340   -0.1471    0.7355 C   0  0  1  0  0  0  0  0  0  0  0  0
    0.3346   -1.9684   -0.1664 C   0  0  2  0  0  0  0  0  0  0  0  0
   -0.2521   -1.2165    1.0469 C   0  0  1  0  0  0  0  0  0  0  0  0
    1.3330   -1.1791   -1.0227 C   0  0  0  0  0  0  0  0  0  0  0  0
   -1.1660    0.6973   -0.5523 C   0  0  1  0  0  0  0  0  0  0  0  0
   -0.7812   -1.9778    1.6361 H   0  0  0  0  0  0  0  0  0  0  0  0
   -1.4861    0.0725   -1.3954 H   0  0  0  0  0  0  0  0  0  0  0  0
   -1.3451    0.5268    1.6030 H   0  0  0  0  0  0  0  0  0  0  0  0
    0.8936   -2.8267    0.2334 H   0  0  0  0  0  0  0  0  0  0  0  0
   -2.0771    1.9367   -0.5285 C   0  0  0  0  0  0  0  0  0  0  0  0
   -1.8562    2.5388   -1.4152 H   0  0  0  0  0  0  0  0  0  0  0  0
   -1.8292    2.5500    0.3572 H   0  0  0  0  0  0  0  0  0  0  0  0
    0.9692   -0.8822   -2.0215 H   0  0  0  0  0  0  0  0  0  0  0  0
    2.4869   -1.0168   -0.6697 O   0  0  0  0  0  0  0  0  0  0  0  0
   -3.4554    1.6091   -0.5736 O   0  0  0  0  0  0  0  0  0  0  0  0
   -3.5867    0.8673    0.0441 H   0  0  0  0  0  0  0  0  0  0  0  0
   -0.7976   -2.3902   -0.9265 O   0  0  0  0  0  0  0  0  0  0  0  0
   -0.5201   -3.0555   -1.5741 H   0  0  0  0  0  0  0  0  0  0  0  0
    0.8461   -0.7100    1.8100 O   0  0  0  0  0  0  0  0  0  0  0  0
    0.5269   -0.5655    2.7146 H   0  0  0  0  0  0  0  0  0  0  0  0
   -2.6293   -0.7676    0.7382 O   0  0  0  0  0  0  0  0  0  0  0  0
   -2.6214   -1.4034    0.0001 H   0  0  0  0  0  0  0  0  0  0  0  0
    3.8626    1.4385   -0.5334 O   0  0  0  0  0  0  0  0  0  0  0  0
    2.5323    1.9535    0.6081 H   0  0  0  0  0  0  0  0  0  0  0  0
    4.6361    1.1548   -0.0230 H   0  0  0  0  0  0  0  0  0  0  0  0
    3.4617    0.5990   -0.8390 H   0  0  0  0  0  0  0  0  0  0  0  0
    1.7197    1.9421    1.1695 O   0  0  0  0  0  0  0  0  0  0  0  0
    0.5976    1.5451   -0.0654 H   0  0  0  0  0  0  0  0  0  0  0  0
    1.6784    1.0182    1.4823 H   0  0  0  0  0  0  0  0  0  0  0  0
  1  6  1  0  0  0  0
  1 29  1  0  0  0  0
  2 22  1  0  0  0  0
  2  4  1  0  0  0  0
  2  9  1  1  0  0  0
  3 10  1  1  0  0  0
  3  4  1  0  0  0  0
  4  7  1  1  0  0  0
  4 20  1  0  0  0  0
  5 15  2  0  0  0  0
  5  3  1  0  0  0  0
  6  8  1  6  0  0  0
  6 11  1  0  0  0  0
  6  2  1  0  0  0  0
 11 13  1  0  0  0  0
 12 11  1  0  0  0  0
 14  5  1  0  0  0  0
 16 11  1  0  0  0  0
 16 17  1  0  0  0  0
 18  3  1  0  0  0  0
 19 18  1  0  0  0  0
 20 21  1  0  0  0  0
 23 22  1  0  0  0  0
 24 26  1  0  0  0  0
 25 28  1  0  0  0  0
 27 24  1  0  0  0  0
 28 30  1  0  0  0  0
M  END
$$$$
