./opt_IRC/b3lyp/boats/5/glo_1w_alpha_ircf_boat5_B3LYP_631Gd_opt.out
 OpenBabel01251716433D
Gaussian 09 # b3lyp/6-31g(d) opt freq
 30 28  0  0  1  0  0  0  0  0999 V2000
   -1.2325   -0.3736   -1.2700 O   0  0  0  0  0  0  0  0  0  0  0  0
   -0.7252    0.6374    0.9538 C   0  0  1  0  0  0  0  0  0  0  0  0
    1.1320   -0.3609   -0.4693 C   0  0  2  0  0  0  0  0  0  0  0  0
    0.5712   -0.1985    0.9457 C   0  0  1  0  0  0  0  0  0  0  0  0
    0.0586   -0.9682   -1.4037 C   0  0  1  0  0  0  0  0  0  0  0  0
   -1.3941    0.7688   -0.4302 C   0  0  1  0  0  0  0  0  0  0  0  0
    0.3225   -1.1999    1.3212 H   0  0  0  0  0  0  0  0  0  0  0  0
   -2.4799    0.8233   -0.2663 H   0  0  0  0  0  0  0  0  0  0  0  0
   -0.4851    1.6466    1.3062 H   0  0  0  0  0  0  0  0  0  0  0  0
    1.4825    0.6084   -0.8341 H   0  0  0  0  0  0  0  0  0  0  0  0
   -1.0009    2.0745   -1.1517 C   0  0  0  0  0  0  0  0  0  0  0  0
   -1.3903    2.0332   -2.1778 H   0  0  0  0  0  0  0  0  0  0  0  0
    0.0843    2.1932   -1.2112 H   0  0  0  0  0  0  0  0  0  0  0  0
   -1.4785    3.2092   -0.4373 O   0  0  0  0  0  0  0  0  0  0  0  0
   -2.4205    3.3159   -0.6400 H   0  0  0  0  0  0  0  0  0  0  0  0
    2.2637   -1.2107   -0.4940 O   0  0  0  0  0  0  0  0  0  0  0  0
    1.9039   -2.1155   -0.5761 H   0  0  0  0  0  0  0  0  0  0  0  0
    1.5728    0.3890    1.7719 O   0  0  0  0  0  0  0  0  0  0  0  0
    1.3276    0.2386    2.6976 H   0  0  0  0  0  0  0  0  0  0  0  0
   -1.5962   -0.0021    1.9160 O   0  0  0  0  0  0  0  0  0  0  0  0
   -2.3257    0.6049    2.1196 H   0  0  0  0  0  0  0  0  0  0  0  0
    0.3872   -0.8625   -2.4437 H   0  0  0  0  0  0  0  0  0  0  0  0
   -0.0470   -2.3489   -1.1733 O   0  0  0  0  0  0  0  0  0  0  0  0
   -0.6607   -2.4917   -0.4080 H   0  0  0  0  0  0  0  0  0  0  0  0
   -2.0287   -2.5712    0.7596 O   0  0  0  0  0  0  0  0  0  0  0  0
   -1.9992   -1.7404    1.2809 H   0  0  0  0  0  0  0  0  0  0  0  0
   -2.6765   -2.3860    0.0615 H   0  0  0  0  0  0  0  0  0  0  0  0
    3.7992    1.1866    0.0014 O   0  0  0  0  0  0  0  0  0  0  0  0
    3.2651    1.1228    0.8112 H   0  0  0  0  0  0  0  0  0  0  0  0
    3.7909    0.2638   -0.3028 H   0  0  0  0  0  0  0  0  0  0  0  0
  1  6  1  0  0  0  0
  2  9  1  1  0  0  0
  2 20  1  0  0  0  0
  3 10  1  6  0  0  0
  3  4  1  0  0  0  0
  4  2  1  0  0  0  0
  4  7  1  1  0  0  0
  4 18  1  0  0  0  0
  5 22  1  6  0  0  0
  5  1  1  0  0  0  0
  5 23  1  0  0  0  0
  5  3  1  0  0  0  0
  6  8  1  1  0  0  0
  6  2  1  0  0  0  0
 11 14  1  0  0  0  0
 11  6  1  0  0  0  0
 12 11  1  0  0  0  0
 13 11  1  0  0  0  0
 15 14  1  0  0  0  0
 16  3  1  0  0  0  0
 17 16  1  0  0  0  0
 18 19  1  0  0  0  0
 20 21  1  0  0  0  0
 23 24  1  0  0  0  0
 25 26  1  0  0  0  0
 27 25  1  0  0  0  0
 28 29  1  0  0  0  0
 30 28  1  0  0  0  0
M  END
$$$$
