./IRC/b3lyp/boats/6/glo_2w_alpha_ircr_boat6_B3LYP_631Gd.out
 OpenBabel01241715093D
Gaussian 09 # b3lyp/6-31g(d) irc=(calcfc,reverse)
 30 28  0  0  1  0  0  0  0  0999 V2000
   -0.1282    0.9838   -0.2085 C   0  0  2  0  0  0  0  0  0  0  0  0
   -2.1830   -0.2472    0.6095 C   0  0  1  0  0  0  0  0  0  0  0  0
   -1.6757    1.0296   -0.1020 C   0  0  2  0  0  0  0  0  0  0  0  0
   -1.4315   -1.4814    0.0703 C   0  0  2  0  0  0  0  0  0  0  0  0
   -1.8414   -2.3923    0.5276 H   0  0  0  0  0  0  0  0  0  0  0  0
   -3.2495   -0.3480    0.3889 H   0  0  0  0  0  0  0  0  0  0  0  0
    0.1427    0.5878   -1.1929 H   0  0  0  0  0  0  0  0  0  0  0  0
   -1.9932    1.8836    0.5089 H   0  0  0  0  0  0  0  0  0  0  0  0
    0.0864   -1.3836    0.4195 C   0  0  2  0  0  0  0  0  0  0  0  0
    0.3705    0.0726    0.7966 O   0  0  0  0  0  0  0  0  0  0  0  0
    0.4673    2.3784   -0.0874 C   0  0  0  0  0  0  0  0  0  0  0  0
   -0.1389    3.0301   -0.7301 H   0  0  0  0  0  0  0  0  0  0  0  0
    0.3905    2.7360    0.9498 H   0  0  0  0  0  0  0  0  0  0  0  0
    1.8348    2.3960   -0.5349 O   0  0  0  0  0  0  0  0  0  0  0  0
    2.1467    3.3138   -0.5128 H   0  0  0  0  0  0  0  0  0  0  0  0
   -1.5970   -1.5241   -1.3456 O   0  0  0  0  0  0  0  0  0  0  0  0
   -0.7293   -1.8248   -1.6862 H   0  0  0  0  0  0  0  0  0  0  0  0
   -2.0696   -0.1559    2.0234 O   0  0  0  0  0  0  0  0  0  0  0  0
   -1.1317    0.0368    2.1955 H   0  0  0  0  0  0  0  0  0  0  0  0
   -2.2492    1.2122   -1.3832 O   0  0  0  0  0  0  0  0  0  0  0  0
   -2.1492    0.3451   -1.8230 H   0  0  0  0  0  0  0  0  0  0  0  0
    3.2781   -1.7094   -0.3234 O   0  0  0  0  0  0  0  0  0  0  0  0
    1.8439   -1.8556   -0.4678 H   0  0  0  0  0  0  0  0  0  0  0  0
    3.2969   -0.8004    0.1417 H   0  0  0  0  0  0  0  0  0  0  0  0
    3.6653   -1.5865   -1.2027 H   0  0  0  0  0  0  0  0  0  0  0  0
    0.8240   -1.8142   -0.6355 O   0  0  0  0  0  0  0  0  0  0  0  0
    0.3252   -1.8829    1.3646 H   0  0  0  0  0  0  0  0  0  0  0  0
    2.9171    0.3940    0.8862 O   0  0  0  0  0  0  0  0  0  0  0  0
    2.8630    1.1873    0.3157 H   0  0  0  0  0  0  0  0  0  0  0  0
    1.9647    0.2382    1.0667 H   0  0  0  0  0  0  0  0  0  0  0  0
  1  7  1  6  0  0  0
  1  3  1  0  0  0  0
  1 11  1  0  0  0  0
  1 10  1  0  0  0  0
  2  6  1  6  0  0  0
  2 18  1  0  0  0  0
  3  8  1  1  0  0  0
  3  2  1  0  0  0  0
  4  9  1  0  0  0  0
  4  5  1  1  0  0  0
  4  2  1  0  0  0  0
  9 10  1  0  0  0  0
  9 27  1  1  0  0  0
 11 13  1  0  0  0  0
 12 11  1  0  0  0  0
 14 15  1  0  0  0  0
 14 11  1  0  0  0  0
 16  4  1  0  0  0  0
 17 16  1  0  0  0  0
 18 19  1  0  0  0  0
 20  3  1  0  0  0  0
 21 20  1  0  0  0  0
 22 24  1  0  0  0  0
 25 22  1  0  0  0  0
 26 23  1  0  0  0  0
 26  9  1  0  0  0  0
 28 30  1  0  0  0  0
 29 28  1  0  0  0  0
M  END
$$$$
