./IRC/b3lyp/boats/6/glo_1w_alpha_ircr_boat6_B3LYP_631Gd.out
 OpenBabel01241715093D
Gaussian 09 # b3lyp/6-31g(d) irc=(calcfc,reverse)
 30 27  0  0  1  0  0  0  0  0999 V2000
   -0.4503    0.8826    0.1356 C   0  0  2  0  0  0  0  0  0  0  0  0
    1.4903   -0.7538    0.0691 C   0  0  1  0  0  0  0  0  0  0  0  0
    1.0575    0.7426   -0.0493 C   0  0  2  0  0  0  0  0  0  0  0  0
    0.3698   -1.7798    0.3470 C   0  0  2  0  0  0  0  0  0  0  0  0
    0.7881   -2.7704    0.0928 H   0  0  0  0  0  0  0  0  0  0  0  0
    2.1566   -0.8233    0.9318 H   0  0  0  0  0  0  0  0  0  0  0  0
   -0.7546    0.4815    1.1079 H   0  0  0  0  0  0  0  0  0  0  0  0
    1.2668    1.0516   -1.0892 H   0  0  0  0  0  0  0  0  0  0  0  0
   -0.9536   -1.6790   -0.4434 C   0  0  0  0  0  0  0  0  0  0  0  0
   -0.9798    0.0656   -0.9264 O   0  0  0  0  0  0  0  0  0  0  0  0
   -0.9697    2.2967    0.0016 C   0  0  0  0  0  0  0  0  0  0  0  0
   -0.3940    2.9428    0.6740 H   0  0  0  0  0  0  0  0  0  0  0  0
   -0.8325    2.6436   -1.0330 H   0  0  0  0  0  0  0  0  0  0  0  0
   -2.3601    2.2836    0.3598 O   0  0  0  0  0  0  0  0  0  0  0  0
   -2.7049    3.1836    0.2632 H   0  0  0  0  0  0  0  0  0  0  0  0
    0.0526   -1.7023    1.7181 O   0  0  0  0  0  0  0  0  0  0  0  0
   -0.9145   -1.8875    1.7347 H   0  0  0  0  0  0  0  0  0  0  0  0
    2.3025   -1.1482   -1.0553 O   0  0  0  0  0  0  0  0  0  0  0  0
    1.7908   -0.9899   -1.8657 H   0  0  0  0  0  0  0  0  0  0  0  0
    1.7289    1.5817    0.8587 O   0  0  0  0  0  0  0  0  0  0  0  0
    2.6756    1.5463    0.5933 H   0  0  0  0  0  0  0  0  0  0  0  0
   -3.4327   -0.0672   -0.7460 O   0  0  0  0  0  0  0  0  0  0  0  0
   -3.2328   -0.9130   -0.2650 H   0  0  0  0  0  0  0  0  0  0  0  0
   -2.0180    0.1582   -0.9869 H   0  0  0  0  0  0  0  0  0  0  0  0
   -3.5406    0.6275   -0.0707 H   0  0  0  0  0  0  0  0  0  0  0  0
    4.1530    0.8682   -0.3655 O   0  0  0  0  0  0  0  0  0  0  0  0
    4.8248    0.4805    0.2152 H   0  0  0  0  0  0  0  0  0  0  0  0
    3.7111    0.0976   -0.7840 H   0  0  0  0  0  0  0  0  0  0  0  0
   -1.9933   -1.9051    0.2359 O   0  0  0  0  0  0  0  0  0  0  0  0
   -0.9020   -1.9905   -1.4987 H   0  0  0  0  0  0  0  0  0  0  0  0
  1  7  1  1  0  0  0
  2  4  1  0  0  0  0
  2  6  1  1  0  0  0
  3  8  1  6  0  0  0
  3  2  1  0  0  0  0
  3  1  1  0  0  0  0
  3 20  1  0  0  0  0
  4  5  1  6  0  0  0
  4 16  1  0  0  0  0
  9 29  2  0  0  0  0
  9  4  1  0  0  0  0
 10  1  1  0  0  0  0
 11  1  1  0  0  0  0
 11 14  1  0  0  0  0
 11 12  1  0  0  0  0
 13 11  1  0  0  0  0
 15 14  1  0  0  0  0
 16 17  1  0  0  0  0
 18  2  1  0  0  0  0
 19 18  1  0  0  0  0
 21 20  1  0  0  0  0
 22 23  1  0  0  0  0
 22 25  1  0  0  0  0
 24 10  1  0  0  0  0
 26 27  1  0  0  0  0
 28 26  1  0  0  0  0
 30  9  1  0  0  0  0
M  END
$$$$
