./IRC/b3lyp/boats/6/glo_2w_beta_ircf_boat6_B3LYP_631Gd.out
 OpenBabel01251716433D
Gaussian 09 # b3lyp/6-31g(d) irc=(calcfc,forward)
 30 28  0  0  1  0  0  0  0  0999 V2000
   -1.1196    0.7360   -0.1968 C   0  0  2  0  0  0  0  0  0  0  0  0
   -0.4438   -1.5022    0.8427 C   0  0  1  0  0  0  0  0  0  0  0  0
   -1.3659   -0.2593    0.9591 C   0  0  2  0  0  0  0  0  0  0  0  0
   -0.2101   -1.8036   -0.6495 C   0  0  2  0  0  0  0  0  0  0  0  0
    0.3698   -2.7279   -0.7598 H   0  0  0  0  0  0  0  0  0  0  0  0
   -0.9646   -2.3473    1.3187 H   0  0  0  0  0  0  0  0  0  0  0  0
   -1.7795    0.4718   -1.0292 H   0  0  0  0  0  0  0  0  0  0  0  0
   -1.1872    0.2167    1.9335 H   0  0  0  0  0  0  0  0  0  0  0  0
    0.6876   -0.6549   -1.1945 C   0  0  1  0  0  0  0  0  0  0  0  0
    0.6095   -0.5627   -2.2840 H   0  0  0  0  0  0  0  0  0  0  0  0
    0.2444    0.6498   -0.6457 O   0  0  0  0  0  0  0  0  0  0  0  0
   -1.4487    2.1657    0.2149 C   0  0  0  0  0  0  0  0  0  0  0  0
   -2.4358    2.1332    0.7045 H   0  0  0  0  0  0  0  0  0  0  0  0
   -0.7115    2.5158    0.9544 H   0  0  0  0  0  0  0  0  0  0  0  0
   -1.4640    2.9800   -0.9446 O   0  0  0  0  0  0  0  0  0  0  0  0
   -1.6421    3.8912   -0.6677 H   0  0  0  0  0  0  0  0  0  0  0  0
    1.9819   -0.9307   -0.7747 O   0  0  0  0  0  0  0  0  0  0  0  0
   -1.4239   -1.9485   -1.3701 O   0  0  0  0  0  0  0  0  0  0  0  0
   -2.1659   -1.6818   -0.7973 H   0  0  0  0  0  0  0  0  0  0  0  0
    0.7990   -1.3040    1.5117 O   0  0  0  0  0  0  0  0  0  0  0  0
    1.4988   -1.3351    0.8136 H   0  0  0  0  0  0  0  0  0  0  0  0
   -2.7444   -0.6485    0.8333 O   0  0  0  0  0  0  0  0  0  0  0  0
   -2.9806   -1.1858    1.6072 H   0  0  0  0  0  0  0  0  0  0  0  0
    1.7823    1.2672    1.3318 O   0  0  0  0  0  0  0  0  0  0  0  0
    3.0741    1.0680    0.5854 H   0  0  0  0  0  0  0  0  0  0  0  0
    1.5135    0.4458    1.7886 H   0  0  0  0  0  0  0  0  0  0  0  0
    1.2010    1.2379    0.5341 H   0  0  0  0  0  0  0  0  0  0  0  0
    3.6601    0.7811   -0.1844 O   0  0  0  0  0  0  0  0  0  0  0  0
    2.6514   -0.1617   -0.7638 H   0  0  0  0  0  0  0  0  0  0  0  0
    4.3988    0.2837    0.1964 H   0  0  0  0  0  0  0  0  0  0  0  0
  1  7  1  6  0  0  0
  1 12  1  0  0  0  0
  1  3  1  0  0  0  0
  2  3  1  0  0  0  0
  2  6  1  1  0  0  0
  2 20  1  0  0  0  0
  3  8  1  1  0  0  0
  4  5  1  6  0  0  0
  4  2  1  0  0  0  0
  9 10  1  6  0  0  0
  9 17  1  0  0  0  0
  9  4  1  0  0  0  0
  9 11  1  0  0  0  0
 11  1  1  0  0  0  0
 12 13  1  0  0  0  0
 12 14  1  0  0  0  0
 15 16  1  0  0  0  0
 15 12  1  0  0  0  0
 17 29  1  0  0  0  0
 18 19  1  0  0  0  0
 18  4  1  0  0  0  0
 21 20  1  0  0  0  0
 22  3  1  0  0  0  0
 22 23  1  0  0  0  0
 24 26  1  0  0  0  0
 27 24  1  0  0  0  0
 28 30  1  0  0  0  0
 28 25  1  0  0  0  0
M  END
$$$$
