./IRC/b3lyp/boats/6/glo_2w_alpha_ircf_boat6_B3LYP_631Gd.out
 OpenBabel01251716433D
Gaussian 09 # b3lyp/6-31g(d) irc=(calcfc,forward)
 30 27  0  0  1  0  0  0  0  0999 V2000
   -0.1114    1.0261   -0.2015 C   0  0  2  0  0  0  0  0  0  0  0  0
   -2.1671   -0.2430    0.6159 C   0  0  1  0  0  0  0  0  0  0  0  0
   -1.6594    1.0342   -0.0943 C   0  0  2  0  0  0  0  0  0  0  0  0
   -1.4575   -1.4952    0.0649 C   0  0  2  0  0  0  0  0  0  0  0  0
   -1.9122   -2.3881    0.5233 H   0  0  0  0  0  0  0  0  0  0  0  0
   -3.2352   -0.3284    0.3936 H   0  0  0  0  0  0  0  0  0  0  0  0
    0.1720    0.5873   -1.1658 H   0  0  0  0  0  0  0  0  0  0  0  0
   -1.9868    1.8843    0.5171 H   0  0  0  0  0  0  0  0  0  0  0  0
    0.0564   -1.5868    0.3560 C   0  0  0  0  0  0  0  0  0  0  0  0
    0.3941    0.1946    0.8548 O   0  0  0  0  0  0  0  0  0  0  0  0
    0.4606    2.4259   -0.1154 C   0  0  0  0  0  0  0  0  0  0  0  0
   -0.1354    3.0716   -0.7732 H   0  0  0  0  0  0  0  0  0  0  0  0
    0.3754    2.7930    0.9175 H   0  0  0  0  0  0  0  0  0  0  0  0
    1.8325    2.4208   -0.5460 O   0  0  0  0  0  0  0  0  0  0  0  0
    2.1546    3.3351   -0.5337 H   0  0  0  0  0  0  0  0  0  0  0  0
   -1.6203   -1.5215   -1.3476 O   0  0  0  0  0  0  0  0  0  0  0  0
   -0.7327   -1.7928   -1.6769 H   0  0  0  0  0  0  0  0  0  0  0  0
   -2.0594   -0.1593    2.0278 O   0  0  0  0  0  0  0  0  0  0  0  0
   -1.1258    0.0460    2.2096 H   0  0  0  0  0  0  0  0  0  0  0  0
   -2.2360    1.2126   -1.3749 O   0  0  0  0  0  0  0  0  0  0  0  0
   -2.1434    0.3414   -1.8098 H   0  0  0  0  0  0  0  0  0  0  0  0
    3.3720   -1.7697   -0.3583 O   0  0  0  0  0  0  0  0  0  0  0  0
    2.4038   -1.9672   -0.4805 H   0  0  0  0  0  0  0  0  0  0  0  0
    3.2210   -0.3773    0.4138 H   0  0  0  0  0  0  0  0  0  0  0  0
    3.7248   -1.6906   -1.2570 H   0  0  0  0  0  0  0  0  0  0  0  0
    0.7774   -1.8519   -0.6369 O   0  0  0  0  0  0  0  0  0  0  0  0
    0.3413   -1.9149    1.3639 H   0  0  0  0  0  0  0  0  0  0  0  0
    2.8558    0.4126    0.9190 O   0  0  0  0  0  0  0  0  0  0  0  0
    2.8768    1.1842    0.3176 H   0  0  0  0  0  0  0  0  0  0  0  0
    1.4515    0.2504    0.9225 H   0  0  0  0  0  0  0  0  0  0  0  0
  1  7  1  6  0  0  0
  1 11  1  0  0  0  0
  1  3  1  0  0  0  0
  1 10  1  0  0  0  0
  2  6  1  6  0  0  0
  2 18  1  0  0  0  0
  3  8  1  1  0  0  0
  3  2  1  0  0  0  0
  4  9  1  0  0  0  0
  4  5  1  1  0  0  0
  4  2  1  0  0  0  0
  9 27  1  0  0  0  0
 10 30  1  0  0  0  0
 11 13  1  0  0  0  0
 12 11  1  0  0  0  0
 14 15  1  0  0  0  0
 14 11  1  0  0  0  0
 16  4  1  0  0  0  0
 17 16  1  0  0  0  0
 18 19  1  0  0  0  0
 20  3  1  0  0  0  0
 21 20  1  0  0  0  0
 23 22  1  0  0  0  0
 24 28  1  0  0  0  0
 25 22  1  0  0  0  0
 26  9  2  0  0  0  0
 29 28  1  0  0  0  0
M  END
$$$$
