./opt_IRC/b3lyp/init_boats/5/glo_2w_beta_boat5_b3lyp_631Gd_iopt.out
 OpenBabel01251716433D
Gaussian 09 # opt=(modredundant,MaxCycle=1000) freq B3LYP/6-31G(d)
 30 28  0  0  1  0  0  0  0  0999 V2000
    0.4369    0.7557    0.5711 O   0  0  0  0  0  0  0  0  0  0  0  0
   -1.3190    0.1430   -1.0617 C   0  0  1  0  0  0  0  0  0  0  0  0
   -0.1618   -1.6657    0.2903 C   0  0  2  0  0  0  0  0  0  0  0  0
   -1.4742   -1.2293   -0.3902 C   0  0  1  0  0  0  0  0  0  0  0  0
    0.9353   -0.5924    0.2985 C   0  0  2  0  0  0  0  0  0  0  0  0
   -0.7816    1.1789   -0.0716 C   0  0  1  0  0  0  0  0  0  0  0  0
   -1.6958   -1.9785   -1.1699 H   0  0  0  0  0  0  0  0  0  0  0  0
   -0.5378    2.0771   -0.6591 H   0  0  0  0  0  0  0  0  0  0  0  0
   -2.3031    0.4866   -1.4127 H   0  0  0  0  0  0  0  0  0  0  0  0
   -0.4034   -1.8988    1.3361 H   0  0  0  0  0  0  0  0  0  0  0  0
   -1.7650    1.5479    1.0595 C   0  0  0  0  0  0  0  0  0  0  0  0
   -1.4342    2.4805    1.5352 H   0  0  0  0  0  0  0  0  0  0  0  0
   -1.7445    0.7580    1.8087 H   0  0  0  0  0  0  0  0  0  0  0  0
    1.3992   -0.5670   -0.6944 H   0  0  0  0  0  0  0  0  0  0  0  0
    1.8495   -0.9254    1.2735 O   0  0  0  0  0  0  0  0  0  0  0  0
    2.7286   -0.5395    1.0202 H   0  0  0  0  0  0  0  0  0  0  0  0
   -3.1254    1.6418    0.6280 O   0  0  0  0  0  0  0  0  0  0  0  0
   -3.2254    2.4377    0.0827 H   0  0  0  0  0  0  0  0  0  0  0  0
    0.3415   -2.8106   -0.3876 O   0  0  0  0  0  0  0  0  0  0  0  0
    1.1611   -3.0536    0.0754 H   0  0  0  0  0  0  0  0  0  0  0  0
   -2.5120   -1.2236    0.5801 O   0  0  0  0  0  0  0  0  0  0  0  0
   -3.1561   -0.5294    0.3554 H   0  0  0  0  0  0  0  0  0  0  0  0
   -0.4001    0.1080   -2.1539 O   0  0  0  0  0  0  0  0  0  0  0  0
   -0.5485   -0.7146   -2.6480 H   0  0  0  0  0  0  0  0  0  0  0  0
    4.1174    0.2838    0.3519 O   0  0  0  0  0  0  0  0  0  0  0  0
    3.6682    1.0059   -0.1561 H   0  0  0  0  0  0  0  0  0  0  0  0
    4.5806    0.7421    1.0693 H   0  0  0  0  0  0  0  0  0  0  0  0
    2.4243    2.0994   -0.7917 O   0  0  0  0  0  0  0  0  0  0  0  0
    2.1380    1.7984   -1.6688 H   0  0  0  0  0  0  0  0  0  0  0  0
    1.7141    1.7679   -0.1933 H   0  0  0  0  0  0  0  0  0  0  0  0
  2  9  1  6  0  0  0
  2  4  1  0  0  0  0
  2  6  1  0  0  0  0
  3  5  1  0  0  0  0
  3 10  1  1  0  0  0
  4  7  1  6  0  0  0
  4  3  1  0  0  0  0
  4 21  1  0  0  0  0
  5 14  1  6  0  0  0
  5  1  1  0  0  0  0
  5 15  1  0  0  0  0
  6  8  1  6  0  0  0
  6  1  1  0  0  0  0
  6 11  1  0  0  0  0
 11 12  1  0  0  0  0
 11 13  1  0  0  0  0
 16 15  1  0  0  0  0
 17 11  1  0  0  0  0
 18 17  1  0  0  0  0
 19 20  1  0  0  0  0
 19  3  1  0  0  0  0
 22 21  1  0  0  0  0
 23  2  1  0  0  0  0
 24 23  1  0  0  0  0
 25 27  1  0  0  0  0
 26 25  1  0  0  0  0
 28 30  1  0  0  0  0
 29 28  1  0  0  0  0
M  END
$$$$
