./TS/b3lyp/boats/5/glo_1w_alpha_ts_boat5_B3LYP_631Gd.out
 OpenBabel01251716443D
Gaussian 09 # opt=(calcfc,ts,noeigentest,maxcycle=1000,cartesian) b3lyp 6-31g(d)
 30 27  0  0  1  0  0  0  0  0999 V2000
   -1.3951   -0.2529   -1.1244 O   0  0  0  0  0  0  0  0  0  0  0  0
   -0.6359    0.7278    1.0121 C   0  0  1  0  0  0  0  0  0  0  0  0
    1.0668   -0.6374   -0.4043 C   0  0  2  0  0  0  0  0  0  0  0  0
    0.6210   -0.1799    0.9943 C   0  0  1  0  0  0  0  0  0  0  0  0
   -0.0764   -1.3420   -1.1546 C   0  0  0  0  0  0  0  0  0  0  0  0
   -1.2882    0.9549   -0.3607 C   0  0  1  0  0  0  0  0  0  0  0  0
    0.3622   -1.0900    1.5484 H   0  0  0  0  0  0  0  0  0  0  0  0
   -2.3248    1.2839   -0.1799 H   0  0  0  0  0  0  0  0  0  0  0  0
   -0.3462    1.7055    1.4118 H   0  0  0  0  0  0  0  0  0  0  0  0
    1.4915    0.1986   -0.9626 H   0  0  0  0  0  0  0  0  0  0  0  0
   -0.6267    2.0835   -1.1738 C   0  0  0  0  0  0  0  0  0  0  0  0
   -1.0252    2.0478   -2.1965 H   0  0  0  0  0  0  0  0  0  0  0  0
    0.4574    1.9664   -1.2334 H   0  0  0  0  0  0  0  0  0  0  0  0
   -0.8460    3.3429   -0.5484 O   0  0  0  0  0  0  0  0  0  0  0  0
   -1.7477    3.6300   -0.7598 H   0  0  0  0  0  0  0  0  0  0  0  0
    2.1135   -1.5937   -0.2948 O   0  0  0  0  0  0  0  0  0  0  0  0
    1.6595   -2.4444   -0.1377 H   0  0  0  0  0  0  0  0  0  0  0  0
    1.7274    0.4815    1.6108 O   0  0  0  0  0  0  0  0  0  0  0  0
    1.6699    0.3528    2.5690 H   0  0  0  0  0  0  0  0  0  0  0  0
   -1.5771    0.0993    1.9254 O   0  0  0  0  0  0  0  0  0  0  0  0
   -2.2384    0.7646    2.1760 H   0  0  0  0  0  0  0  0  0  0  0  0
    0.0512   -1.3350   -2.2470 H   0  0  0  0  0  0  0  0  0  0  0  0
   -0.4299   -2.4679   -0.6095 O   0  0  0  0  0  0  0  0  0  0  0  0
   -1.7445   -2.3854   -0.0373 H   0  0  0  0  0  0  0  0  0  0  0  0
   -2.6399   -1.8380    0.1832 O   0  0  0  0  0  0  0  0  0  0  0  0
   -2.4578   -1.4167    1.0558 H   0  0  0  0  0  0  0  0  0  0  0  0
   -2.2448   -1.0039   -0.5266 H   0  0  0  0  0  0  0  0  0  0  0  0
    3.9072    0.6730   -0.3787 O   0  0  0  0  0  0  0  0  0  0  0  0
    3.4048    0.8140    0.4418 H   0  0  0  0  0  0  0  0  0  0  0  0
    3.7890   -0.2827   -0.5075 H   0  0  0  0  0  0  0  0  0  0  0  0
  1 27  1  0  0  0  0
  1  6  1  0  0  0  0
  2  9  1  1  0  0  0
  2 20  1  0  0  0  0
  3 10  1  6  0  0  0
  3 16  1  0  0  0  0
  3  4  1  0  0  0  0
  4  2  1  0  0  0  0
  4  7  1  1  0  0  0
  4 18  1  0  0  0  0
  5 23  1  0  0  0  0
  5  3  1  0  0  0  0
  6  8  1  1  0  0  0
  6  2  1  0  0  0  0
 11 14  1  0  0  0  0
 11  6  1  0  0  0  0
 12 11  1  0  0  0  0
 13 11  1  0  0  0  0
 15 14  1  0  0  0  0
 16 17  1  0  0  0  0
 18 19  1  0  0  0  0
 20 21  1  0  0  0  0
 22  5  1  0  0  0  0
 24 25  1  0  0  0  0
 25 26  1  0  0  0  0
 28 29  1  0  0  0  0
 30 28  1  0  0  0  0
M  RAD  2   5   2  23   2
M  END
$$$$
