./TS/b3lyp/boats/5/glo_2w_alpha_ts_boat5_B3LYP_631Gd.out
 OpenBabel01241715093D
Gaussian 09 # opt=(calcfc,ts,noeigentest,maxcycle=1000,cartesian) b3lyp 6-31g(d)
 30 27  0  0  1  0  0  0  0  0999 V2000
    0.3515   -0.6521   -0.7556 O   0  0  0  0  0  0  0  0  0  0  0  0
   -1.2565    0.1878    0.9540 C   0  0  1  0  0  0  0  0  0  0  0  0
   -0.1108    1.7723   -0.7604 C   0  0  2  0  0  0  0  0  0  0  0  0
   -1.4126    1.3921   -0.0000 C   0  0  1  0  0  0  0  0  0  0  0  0
    1.0236    0.7484   -0.5749 C   0  0  0  0  0  0  0  0  0  0  0  0
   -0.6488   -1.0354    0.2397 C   0  0  1  0  0  0  0  0  0  0  0  0
   -1.6936    2.2611    0.6083 H   0  0  0  0  0  0  0  0  0  0  0  0
   -0.1495   -1.6369    1.0139 H   0  0  0  0  0  0  0  0  0  0  0  0
   -2.2519   -0.1209    1.2948 H   0  0  0  0  0  0  0  0  0  0  0  0
   -0.3806    1.8299   -1.8189 H   0  0  0  0  0  0  0  0  0  0  0  0
   -1.6674   -1.8978   -0.5219 C   0  0  0  0  0  0  0  0  0  0  0  0
   -1.1414   -2.7269   -1.0227 H   0  0  0  0  0  0  0  0  0  0  0  0
   -2.1417   -1.2846   -1.2889 H   0  0  0  0  0  0  0  0  0  0  0  0
   -2.7091   -2.3723    0.3190 O   0  0  0  0  0  0  0  0  0  0  0  0
   -2.3214   -2.9644    0.9828 H   0  0  0  0  0  0  0  0  0  0  0  0
    0.3966    3.0385   -0.3813 O   0  0  0  0  0  0  0  0  0  0  0  0
    0.9798    2.8529    0.3789 H   0  0  0  0  0  0  0  0  0  0  0  0
   -2.4011    1.1304   -1.0045 O   0  0  0  0  0  0  0  0  0  0  0  0
   -3.2509    0.9960   -0.5550 H   0  0  0  0  0  0  0  0  0  0  0  0
   -0.5409    0.5360    2.1225 O   0  0  0  0  0  0  0  0  0  0  0  0
    0.3798    0.7283    1.8238 H   0  0  0  0  0  0  0  0  0  0  0  0
    1.6850    0.7203   -1.4566 H   0  0  0  0  0  0  0  0  0  0  0  0
    1.6524    0.8681    0.5891 O   0  0  0  0  0  0  0  0  0  0  0  0
    2.9898   -1.5196   -0.2269 H   0  0  0  0  0  0  0  0  0  0  0  0
    2.2621   -2.1421   -0.8044 O   0  0  0  0  0  0  0  0  0  0  0  0
    2.1180   -2.9672   -0.3139 H   0  0  0  0  0  0  0  0  0  0  0  0
    1.2742   -1.4766   -0.8049 H   0  0  0  0  0  0  0  0  0  0  0  0
    3.6324   -0.6099    0.5079 O   0  0  0  0  0  0  0  0  0  0  0  0
    4.3492   -0.1864    0.0104 H   0  0  0  0  0  0  0  0  0  0  0  0
    2.8389    0.1183    0.6136 H   0  0  0  0  0  0  0  0  0  0  0  0
  1  6  1  0  0  0  0
  2  9  1  1  0  0  0
  2 20  1  0  0  0  0
  3 10  1  6  0  0  0
  3  5  1  0  0  0  0
  3 16  1  0  0  0  0
  3  4  1  0  0  0  0
  4  7  1  1  0  0  0
  4  2  1  0  0  0  0
  5 23  1  0  0  0  0
  6  2  1  0  0  0  0
  6  8  1  1  0  0  0
 11  6  1  0  0  0  0
 11 14  1  0  0  0  0
 12 11  1  0  0  0  0
 13 11  1  0  0  0  0
 14 15  1  0  0  0  0
 16 17  1  0  0  0  0
 18 19  1  0  0  0  0
 18  4  1  0  0  0  0
 21 20  1  0  0  0  0
 22  5  1  0  0  0  0
 25 26  1  0  0  0  0
 25 24  1  0  0  0  0
 27  1  1  0  0  0  0
 28 30  1  0  0  0  0
 29 28  1  0  0  0  0
M  RAD  2   5   2  23   2
M  END
$$$$
