./opt_IRC/b3lyp/init_boats/glo_1w_alpha_boat1_b3lyp_631Gd_iopt.out
 OpenBabel01241715093D
Gaussian 09 # opt=(modredundant,MaxCycle=1000) freq B3LYP/6-31G(d)
 30 28  0  0  1  0  0  0  0  0999 V2000
    0.8533    1.4608    1.4689 H   0  0  0  0  0  0  0  0  0  0  0  0
    0.4605    1.4052    0.4478 C   0  0  1  0  0  0  0  0  0  0  0  0
    0.1499   -0.9583   -0.3566 C   0  0  2  0  0  0  0  0  0  0  0  0
   -1.7296    0.7935   -0.5262 C   0  0  2  0  0  0  0  0  0  0  0  0
   -1.0427   -0.4510   -1.1771 C   0  0  2  0  0  0  0  0  0  0  0  0
   -0.9447    1.2498    0.6213 O   0  0  0  0  0  0  0  0  0  0  0  0
    1.1509    0.1830   -0.2169 C   0  0  2  0  0  0  0  0  0  0  0  0
   -0.6529   -0.1564   -2.1667 H   0  0  0  0  0  0  0  0  0  0  0  0
    1.4932    0.4425   -1.2288 H   0  0  0  0  0  0  0  0  0  0  0  0
    0.8369    2.7137   -0.2475 C   0  0  0  0  0  0  0  0  0  0  0  0
    0.3712    3.5602    0.2745 H   0  0  0  0  0  0  0  0  0  0  0  0
    0.4920    2.7182   -1.2927 H   0  0  0  0  0  0  0  0  0  0  0  0
   -0.2126   -1.2538    0.6388 H   0  0  0  0  0  0  0  0  0  0  0  0
    2.2653    2.7664   -0.1781 O   0  0  0  0  0  0  0  0  0  0  0  0
    2.5741    3.5369   -0.6768 H   0  0  0  0  0  0  0  0  0  0  0  0
   -1.9899   -1.4900   -1.3170 O   0  0  0  0  0  0  0  0  0  0  0  0
   -1.4486   -2.2803   -1.4991 H   0  0  0  0  0  0  0  0  0  0  0  0
    0.6543   -2.0769   -1.0611 O   0  0  0  0  0  0  0  0  0  0  0  0
    1.2533   -2.5761   -0.4568 H   0  0  0  0  0  0  0  0  0  0  0  0
    2.2914   -0.2190    0.5556 O   0  0  0  0  0  0  0  0  0  0  0  0
    2.9120    0.5290    0.5245 H   0  0  0  0  0  0  0  0  0  0  0  0
   -1.7761    1.6176   -1.2478 H   0  0  0  0  0  0  0  0  0  0  0  0
   -3.0101    0.5838   -0.0962 O   0  0  0  0  0  0  0  0  0  0  0  0
   -3.0181   -0.2182    0.4691 H   0  0  0  0  0  0  0  0  0  0  0  0
   -2.3547   -0.6979    2.2705 O   0  0  0  0  0  0  0  0  0  0  0  0
   -1.7693    0.0631    2.0966 H   0  0  0  0  0  0  0  0  0  0  0  0
   -1.7580   -1.4377    2.4573 H   0  0  0  0  0  0  0  0  0  0  0  0
    2.5561   -2.9724    0.7191 O   0  0  0  0  0  0  0  0  0  0  0  0
    2.6885   -2.0038    0.8114 H   0  0  0  0  0  0  0  0  0  0  0  0
    3.3014   -3.2696    0.1749 H   0  0  0  0  0  0  0  0  0  0  0  0
  2  6  1  0  0  0  0
  2  1  1  1  0  0  0
  3  7  1  0  0  0  0
  3 13  1  1  0  0  0
  4 22  1  6  0  0  0
  4 23  1  0  0  0  0
  4  6  1  0  0  0  0
  5  8  1  6  0  0  0
  5  4  1  0  0  0  0
  5  3  1  0  0  0  0
  7  9  1  6  0  0  0
  7  2  1  0  0  0  0
  7 20  1  0  0  0  0
 10 14  1  0  0  0  0
 10 11  1  0  0  0  0
 10  2  1  0  0  0  0
 12 10  1  0  0  0  0
 15 14  1  0  0  0  0
 16  5  1  0  0  0  0
 17 16  1  0  0  0  0
 18 19  1  0  0  0  0
 18  3  1  0  0  0  0
 21 20  1  0  0  0  0
 23 24  1  0  0  0  0
 25 27  1  0  0  0  0
 26 25  1  0  0  0  0
 28 29  1  0  0  0  0
 30 28  1  0  0  0  0
M  END
$$$$
