./opt_IRC/b3lyp/init_boats/1/glo_2w_alpha_boat1_b3lyp_631Gd_iopt.out
 OpenBabel01251716433D
Gaussian 09 # opt=(modredundant,MaxCycle=1000) freq B3LYP/6-31G(d)
 30 28  0  0  1  0  0  0  0  0999 V2000
   -1.6543   -1.0353    1.2388 H   0  0  0  0  0  0  0  0  0  0  0  0
   -1.4100   -0.7237    0.2177 C   0  0  1  0  0  0  0  0  0  0  0  0
    0.0820    1.2909    0.1418 C   0  0  2  0  0  0  0  0  0  0  0  0
    0.6553   -0.8323   -1.1791 C   0  0  2  0  0  0  0  0  0  0  0  0
    0.7053    0.7364   -1.1346 C   0  0  2  0  0  0  0  0  0  0  0  0
   -0.1367   -1.3255   -0.0379 O   0  0  0  0  0  0  0  0  0  0  0  0
   -1.3619    0.8258    0.2332 C   0  0  2  0  0  0  0  0  0  0  0  0
    0.1274    1.1233   -1.9875 H   0  0  0  0  0  0  0  0  0  0  0  0
   -1.8908    1.2203   -0.6486 H   0  0  0  0  0  0  0  0  0  0  0  0
   -2.5044   -1.2604   -0.7038 C   0  0  0  0  0  0  0  0  0  0  0  0
   -2.5277   -2.3574   -0.6500 H   0  0  0  0  0  0  0  0  0  0  0  0
   -2.3139   -0.9719   -1.7494 H   0  0  0  0  0  0  0  0  0  0  0  0
    0.6372    0.9286    1.0183 H   0  0  0  0  0  0  0  0  0  0  0  0
   -3.7152   -0.6760   -0.2218 O   0  0  0  0  0  0  0  0  0  0  0  0
   -4.4400   -0.9341   -0.8101 H   0  0  0  0  0  0  0  0  0  0  0  0
    2.0519    1.1969   -1.2426 O   0  0  0  0  0  0  0  0  0  0  0  0
    1.9931    2.1601   -1.1091 H   0  0  0  0  0  0  0  0  0  0  0  0
    0.1701    2.7093    0.0538 O   0  0  0  0  0  0  0  0  0  0  0  0
   -0.3489    3.0606    0.7966 H   0  0  0  0  0  0  0  0  0  0  0  0
   -1.9309    1.3864    1.4097 O   0  0  0  0  0  0  0  0  0  0  0  0
   -2.8842    1.2041    1.3697 H   0  0  0  0  0  0  0  0  0  0  0  0
    0.1148   -1.1384   -2.0831 H   0  0  0  0  0  0  0  0  0  0  0  0
    1.8423   -1.4898   -1.1930 O   0  0  0  0  0  0  0  0  0  0  0  0
    2.4931   -1.1132   -0.5353 H   0  0  0  0  0  0  0  0  0  0  0  0
    3.4586   -0.3895    0.6633 O   0  0  0  0  0  0  0  0  0  0  0  0
    2.8413   -0.5392    1.4164 H   0  0  0  0  0  0  0  0  0  0  0  0
    3.2062    0.4700    0.2787 H   0  0  0  0  0  0  0  0  0  0  0  0
    1.3944   -1.2531    2.3047 O   0  0  0  0  0  0  0  0  0  0  0  0
    0.8662   -1.4508    1.4987 H   0  0  0  0  0  0  0  0  0  0  0  0
    1.7070   -2.1164    2.6161 H   0  0  0  0  0  0  0  0  0  0  0  0
  2  7  1  0  0  0  0
  2  1  1  1  0  0  0
  3  7  1  0  0  0  0
  3 13  1  1  0  0  0
  4 22  1  6  0  0  0
  4  5  1  0  0  0  0
  4  6  1  0  0  0  0
  5  8  1  6  0  0  0
  5  3  1  0  0  0  0
  6  2  1  0  0  0  0
  7  9  1  6  0  0  0
  7 20  1  0  0  0  0
 10 11  1  0  0  0  0
 10 14  1  0  0  0  0
 10  2  1  0  0  0  0
 12 10  1  0  0  0  0
 15 14  1  0  0  0  0
 16  5  1  0  0  0  0
 16 17  1  0  0  0  0
 18  3  1  0  0  0  0
 18 19  1  0  0  0  0
 21 20  1  0  0  0  0
 23  4  1  0  0  0  0
 23 24  1  0  0  0  0
 25 26  1  0  0  0  0
 27 25  1  0  0  0  0
 28 30  1  0  0  0  0
 29 28  1  0  0  0  0
M  END
$$$$
