./OPT_Molecules/chairs/Glo_A_ch1_GS_b3lyp_631Gd_opt.out
 OpenBabel01251716433D
Gaussian 09 # opt b3lyp/6-31g(d)
 24 24  0  0  1  0  0  0  0  0999 V2000
    0.5646   -1.5899   -0.2064 C   0  0  1  0  0  0  0  0  0  0  0  0
   -0.7284   -1.1474   -0.5973 O   0  0  0  0  0  0  0  0  0  0  0  0
    1.5957   -0.5032   -0.5253 C   0  0  1  0  0  0  0  0  0  0  0  0
    1.2103    0.7876    0.1901 C   0  0  2  0  0  0  0  0  0  0  0  0
   -0.2214    1.1955   -0.1580 C   0  0  1  0  0  0  0  0  0  0  0  0
   -1.1954    0.0264    0.0765 C   0  0  1  0  0  0  0  0  0  0  0  0
    1.5302   -0.3201   -1.6103 H   0  0  0  0  0  0  0  0  0  0  0  0
   -0.2553    1.4896   -1.2133 H   0  0  0  0  0  0  0  0  0  0  0  0
   -1.2455   -0.1710    1.1615 H   0  0  0  0  0  0  0  0  0  0  0  0
    1.2751    0.6087    1.2766 H   0  0  0  0  0  0  0  0  0  0  0  0
    2.8899   -0.9421   -0.1674 O   0  0  0  0  0  0  0  0  0  0  0  0
    2.1468    1.7850   -0.2014 O   0  0  0  0  0  0  0  0  0  0  0  0
   -0.5875    2.3775    0.5636 O   0  0  0  0  0  0  0  0  0  0  0  0
    1.8007    2.6313    0.1282 H   0  0  0  0  0  0  0  0  0  0  0  0
    3.4670   -0.1654   -0.2573 H   0  0  0  0  0  0  0  0  0  0  0  0
   -0.5888    2.1502    1.5093 H   0  0  0  0  0  0  0  0  0  0  0  0
   -2.5995    0.3265   -0.4439 C   0  0  0  0  0  0  0  0  0  0  0  0
   -3.5666   -0.6357   -0.0519 O   0  0  0  0  0  0  0  0  0  0  0  0
   -2.5789    0.3032   -1.5379 H   0  0  0  0  0  0  0  0  0  0  0  0
   -2.8788    1.3423   -0.1287 H   0  0  0  0  0  0  0  0  0  0  0  0
   -3.7183   -0.5320    0.9002 H   0  0  0  0  0  0  0  0  0  0  0  0
    0.7469   -2.4789   -0.8211 H   0  0  0  0  0  0  0  0  0  0  0  0
    0.6306   -1.8953    1.1642 O   0  0  0  0  0  0  0  0  0  0  0  0
    0.0417   -2.6520    1.3161 H   0  0  0  0  0  0  0  0  0  0  0  0
  1 22  1  6  0  0  0
  1 23  1  0  0  0  0
  2  1  1  0  0  0  0
  2  6  1  0  0  0  0
  3  7  1  6  0  0  0
  3  1  1  0  0  0  0
  3 11  1  0  0  0  0
  3  4  1  0  0  0  0
  4 10  1  1  0  0  0
  5  8  1  6  0  0  0
  5  6  1  0  0  0  0
  5  4  1  0  0  0  0
  5 13  1  0  0  0  0
  6  9  1  1  0  0  0
 12 14  1  0  0  0  0
 12  4  1  0  0  0  0
 13 16  1  0  0  0  0
 15 11  1  0  0  0  0
 17 20  1  0  0  0  0
 17 18  1  0  0  0  0
 17  6  1  0  0  0  0
 18 21  1  0  0  0  0
 19 17  1  0  0  0  0
 23 24  1  0  0  0  0
M  END
$$$$
