./opt_IRC/b3lyp/init_boats/glo_1w_beta_boat1_b3lyp_631Gd_iopt.out
 OpenBabel01241715093D
Gaussian 09 # opt=(modredundant,MaxCycle=1000) freq B3LYP/6-31G(d)
 30 28  0  0  1  0  0  0  0  0999 V2000
    1.7079    1.3317   -1.3087 H   0  0  0  0  0  0  0  0  0  0  0  0
    1.2996    0.7869   -0.4502 C   0  0  1  0  0  0  0  0  0  0  0  0
   -1.2111    0.5170   -0.5431 C   0  0  2  0  0  0  0  0  0  0  0  0
    0.3097   -1.4466   -0.1576 C   0  0  1  0  0  0  0  0  0  0  0  0
   -1.0654   -0.8262    0.1768 C   0  0  2  0  0  0  0  0  0  0  0  0
    1.1689   -0.5610   -0.9154 O   0  0  0  0  0  0  0  0  0  0  0  0
   -0.0670    1.4286   -0.1213 C   0  0  2  0  0  0  0  0  0  0  0  0
    0.1515   -2.2800   -0.8493 H   0  0  0  0  0  0  0  0  0  0  0  0
   -1.1012   -0.6429    1.2614 H   0  0  0  0  0  0  0  0  0  0  0  0
   -0.1520    1.5681    0.9672 H   0  0  0  0  0  0  0  0  0  0  0  0
    2.2857    0.9369    0.7088 C   0  0  0  0  0  0  0  0  0  0  0  0
    3.2441    0.4619    0.4481 H   0  0  0  0  0  0  0  0  0  0  0  0
    1.8952    0.4468    1.6085 H   0  0  0  0  0  0  0  0  0  0  0  0
    0.9220   -1.8530    1.0288 O   0  0  0  0  0  0  0  0  0  0  0  0
    1.7368   -2.3345    0.7624 H   0  0  0  0  0  0  0  0  0  0  0  0
   -1.1808    0.3503   -1.6284 H   0  0  0  0  0  0  0  0  0  0  0  0
    2.4333    2.3483    0.8881 O   0  0  0  0  0  0  0  0  0  0  0  0
    2.8676    2.5059    1.7391 H   0  0  0  0  0  0  0  0  0  0  0  0
   -2.0399   -1.7671   -0.2161 O   0  0  0  0  0  0  0  0  0  0  0  0
   -2.8907   -1.5241    0.2159 H   0  0  0  0  0  0  0  0  0  0  0  0
   -2.4500    1.1390   -0.1841 O   0  0  0  0  0  0  0  0  0  0  0  0
   -2.3586    2.0730   -0.4416 H   0  0  0  0  0  0  0  0  0  0  0  0
   -0.2557    2.6876   -0.7653 O   0  0  0  0  0  0  0  0  0  0  0  0
    0.3767    3.3016   -0.3565 H   0  0  0  0  0  0  0  0  0  0  0  0
    3.1736   -2.5233   -0.4891 O   0  0  0  0  0  0  0  0  0  0  0  0
    2.7586   -1.7626   -0.9434 H   0  0  0  0  0  0  0  0  0  0  0  0
    4.0288   -2.1922   -0.1764 H   0  0  0  0  0  0  0  0  0  0  0  0
   -4.3920   -0.6085    0.7259 O   0  0  0  0  0  0  0  0  0  0  0  0
   -3.8944    0.1958    0.4658 H   0  0  0  0  0  0  0  0  0  0  0  0
   -4.9809   -0.7743   -0.0264 H   0  0  0  0  0  0  0  0  0  0  0  0
  2  1  1  6  0  0  0
  2  7  1  0  0  0  0
  2 11  1  0  0  0  0
  3 16  1  6  0  0  0
  3 21  1  0  0  0  0
  3  7  1  0  0  0  0
  3  5  1  0  0  0  0
  4  8  1  6  0  0  0
  4  5  1  0  0  0  0
  4 14  1  0  0  0  0
  5  9  1  1  0  0  0
  6  2  1  0  0  0  0
  6  4  1  0  0  0  0
  7 10  1  1  0  0  0
 11 17  1  0  0  0  0
 11 13  1  0  0  0  0
 12 11  1  0  0  0  0
 15 14  1  0  0  0  0
 17 18  1  0  0  0  0
 19  5  1  0  0  0  0
 19 20  1  0  0  0  0
 22 21  1  0  0  0  0
 23 24  1  0  0  0  0
 23  7  1  0  0  0  0
 25 27  1  0  0  0  0
 26 25  1  0  0  0  0
 29 28  1  0  0  0  0
 30 28  1  0  0  0  0
M  END
$$$$
