./TS/g3mp2b3/glo_2w_alpha_ts_chair_B3LYP_6-31Gd.out
 OpenBabel01251716433D
Gaussian 09 # opt=(TS, CalcFC, NoEigenTest, MaxCycle=500) Freq G3MP2B3
 30 26  0  0  1  0  0  0  0  0999 V2000
    0.1226   -1.4723   -0.3161 C   0  0  0  0  0  0  0  0  0  0  0  0
   -0.5980   -0.0495   -0.9136 O   0  0  0  0  0  0  0  0  0  0  0  0
   -3.2731    0.3458   -0.4693 H   0  0  0  0  0  0  0  0  0  0  0  0
   -2.8430   -3.0283    0.8135 H   0  0  0  0  0  0  0  0  0  0  0  0
   -2.6474   -2.1048    1.0353 O   0  0  0  0  0  0  0  0  0  0  0  0
   -2.9787   -1.2612    0.0115 H   0  0  0  0  0  0  0  0  0  0  0  0
   -3.0064   -0.5376   -0.8220 O   0  0  0  0  0  0  0  0  0  0  0  0
   -1.9305   -0.3450   -0.9739 H   0  0  0  0  0  0  0  0  0  0  0  0
    1.5862   -1.1128   -0.6073 C   0  0  1  0  0  0  0  0  0  0  0  0
    1.9907    0.1040    0.2239 C   0  0  2  0  0  0  0  0  0  0  0  0
    1.1447    1.3471   -0.0716 C   0  0  1  0  0  0  0  0  0  0  0  0
   -0.3557    1.0168   -0.0005 C   0  0  1  0  0  0  0  0  0  0  0  0
    1.6774   -0.8606   -1.6751 H   0  0  0  0  0  0  0  0  0  0  0  0
    1.3877    1.7111   -1.0759 H   0  0  0  0  0  0  0  0  0  0  0  0
   -0.5837    0.6758    1.0254 H   0  0  0  0  0  0  0  0  0  0  0  0
    1.8513   -0.1681    1.2833 H   0  0  0  0  0  0  0  0  0  0  0  0
    2.3953   -2.2311   -0.2857 O   0  0  0  0  0  0  0  0  0  0  0  0
    3.3677    0.3555   -0.0473 O   0  0  0  0  0  0  0  0  0  0  0  0
    1.5213    2.4124    0.8120 O   0  0  0  0  0  0  0  0  0  0  0  0
    3.5926    1.1836    0.4080 H   0  0  0  0  0  0  0  0  0  0  0  0
    3.3100   -1.9023   -0.2918 H   0  0  0  0  0  0  0  0  0  0  0  0
    1.3635    2.0995    1.7196 H   0  0  0  0  0  0  0  0  0  0  0  0
   -1.2471    2.2144   -0.3269 C   0  0  0  0  0  0  0  0  0  0  0  0
   -2.6224    2.0180    0.0679 O   0  0  0  0  0  0  0  0  0  0  0  0
   -1.2720    2.3803   -1.4072 H   0  0  0  0  0  0  0  0  0  0  0  0
   -0.8442    3.1120    0.1556 H   0  0  0  0  0  0  0  0  0  0  0  0
   -2.6613    2.0737    1.0360 H   0  0  0  0  0  0  0  0  0  0  0  0
   -0.3037   -2.1390   -1.0873 H   0  0  0  0  0  0  0  0  0  0  0  0
   -0.2064   -1.6697    0.9119 O   0  0  0  0  0  0  0  0  0  0  0  0
   -1.5702   -2.0056    1.0508 H   0  0  0  0  0  0  0  0  0  0  0  0
  1 29  1  0  0  0  0
  2 12  1  0  0  0  0
  4  5  1  0  0  0  0
  5 30  1  0  0  0  0
  7  3  1  0  0  0  0
  8  7  1  0  0  0  0
  9 13  1  6  0  0  0
  9  1  1  0  0  0  0
  9 17  1  0  0  0  0
  9 10  1  0  0  0  0
 10 16  1  1  0  0  0
 11 14  1  6  0  0  0
 11 12  1  0  0  0  0
 11 10  1  0  0  0  0
 11 19  1  0  0  0  0
 12 15  1  1  0  0  0
 18 10  1  0  0  0  0
 18 20  1  0  0  0  0
 19 22  1  0  0  0  0
 21 17  1  0  0  0  0
 23 12  1  0  0  0  0
 23 24  1  0  0  0  0
 23 26  1  0  0  0  0
 24 27  1  0  0  0  0
 25 23  1  0  0  0  0
 28  1  1  0  0  0  0
M  RAD  4   1   2   2   2   6   2  29   2
M  END
$$$$
