./TS/b3lyp/boats/2/glo_1w_beta_ts_boat2_B3LYP_631Gd.out
 OpenBabel01241715093D
Gaussian 09 # opt=(TS,CalcFC,NoEigenTest,MaxCycle=500,cartesian) Freq B3LYP 6-31
 30 27  0  0  1  0  0  0  0  0999 V2000
    1.6913   -0.6319   -1.0853 C   0  0  0  0  0  0  0  0  0  0  0  0
    0.9632    1.0298   -0.8337 O   0  0  0  0  0  0  0  0  0  0  0  0
    3.3403    1.9413    0.4946 H   0  0  0  0  0  0  0  0  0  0  0  0
    2.8791   -0.5437   -0.6087 O   0  0  0  0  0  0  0  0  0  0  0  0
    2.9069    0.3009    0.3490 H   0  0  0  0  0  0  0  0  0  0  0  0
    2.6582    1.3358    0.8326 O   0  0  0  0  0  0  0  0  0  0  0  0
    1.7481    1.3852    0.0785 H   0  0  0  0  0  0  0  0  0  0  0  0
   -0.6512    0.2891    0.8284 C   0  0  1  0  0  0  0  0  0  0  0  0
   -0.4142    1.0314   -0.5006 C   0  0  1  0  0  0  0  0  0  0  0  0
   -0.9142    2.4799   -0.4494 C   0  0  0  0  0  0  0  0  0  0  0  0
   -2.3303    2.5396   -0.1918 O   0  0  0  0  0  0  0  0  0  0  0  0
   -2.0550    0.0758    1.0510 O   0  0  0  0  0  0  0  0  0  0  0  0
    1.5870   -0.6261   -2.1786 H   0  0  0  0  0  0  0  0  0  0  0  0
   -2.4891    0.9273    0.8307 H   0  0  0  0  0  0  0  0  0  0  0  0
   -0.2536    0.9141    1.6452 H   0  0  0  0  0  0  0  0  0  0  0  0
   -0.9547    0.4936   -1.2880 H   0  0  0  0  0  0  0  0  0  0  0  0
   -0.6606    2.9946   -1.3842 H   0  0  0  0  0  0  0  0  0  0  0  0
   -0.4412    3.0221    0.3763 H   0  0  0  0  0  0  0  0  0  0  0  0
   -2.7880    2.3074   -1.0159 H   0  0  0  0  0  0  0  0  0  0  0  0
   -2.8092   -2.2750   -0.2335 O   0  0  0  0  0  0  0  0  0  0  0  0
   -2.7162   -1.4160    0.2389 H   0  0  0  0  0  0  0  0  0  0  0  0
   -2.9943   -2.9229    0.4623 H   0  0  0  0  0  0  0  0  0  0  0  0
    0.0769   -1.0789    0.9025 C   0  0  1  0  0  0  0  0  0  0  0  0
   -0.6752   -1.8154    1.2244 H   0  0  0  0  0  0  0  0  0  0  0  0
    0.6461   -1.5636   -0.4469 C   0  0  1  0  0  0  0  0  0  0  0  0
    1.1939   -2.4979   -0.2406 H   0  0  0  0  0  0  0  0  0  0  0  0
    1.1712   -1.0640    1.8079 O   0  0  0  0  0  0  0  0  0  0  0  0
    0.8540   -0.7423    2.6657 H   0  0  0  0  0  0  0  0  0  0  0  0
   -0.3655   -1.7543   -1.4163 O   0  0  0  0  0  0  0  0  0  0  0  0
   -1.1576   -2.1737   -1.0095 H   0  0  0  0  0  0  0  0  0  0  0  0
  1  4  2  0  0  0  0
  1 25  1  0  0  0  0
  2  9  1  0  0  0  0
  2  7  1  0  0  0  0
  3  6  1  0  0  0  0
  5  6  1  0  0  0  0
  8 23  1  0  0  0  0
  8 12  1  0  0  0  0
  8 15  1  1  0  0  0
  9 16  1  6  0  0  0
  9 10  1  0  0  0  0
  9  8  1  0  0  0  0
 10 11  1  0  0  0  0
 10 18  1  0  0  0  0
 13  1  1  0  0  0  0
 14 12  1  0  0  0  0
 17 10  1  0  0  0  0
 19 11  1  0  0  0  0
 20 21  1  0  0  0  0
 20 22  1  0  0  0  0
 23 24  1  1  0  0  0
 23 27  1  0  0  0  0
 25 26  1  1  0  0  0
 25 23  1  0  0  0  0
 27 28  1  0  0  0  0
 29 30  1  0  0  0  0
 29 25  1  0  0  0  0
M  END
$$$$
