./TS/b3lyp/boats/2/glo_2w_beta_ts_boat2_B3LYP_631Gd.out
 OpenBabel01251716443D
Gaussian 09 # opt=(calcfc,ts,cartesian,noeigentest,maxcycles=500) freq b3lyp/6-3
 30 26  0  0  1  0  0  0  0  0999 V2000
    0.9687   -0.3330   -1.4240 C   0  0  0  0  0  0  0  0  0  0  0  0
   -0.2837    0.7710   -0.7760 O   0  0  0  0  0  0  0  0  0  0  0  0
    0.5606    3.1249    0.8973 H   0  0  0  0  0  0  0  0  0  0  0  0
    2.9915    0.6577    1.0483 H   0  0  0  0  0  0  0  0  0  0  0  0
    3.0117    1.3660    0.3736 O   0  0  0  0  0  0  0  0  0  0  0  0
    2.0468    1.9258    0.6218 H   0  0  0  0  0  0  0  0  0  0  0  0
    0.7901    2.1843    0.8748 O   0  0  0  0  0  0  0  0  0  0  0  0
    0.1791    1.5300   -0.0637 H   0  0  0  0  0  0  0  0  0  0  0  0
   -1.1007   -0.8445    0.9394 C   0  0  1  0  0  0  0  0  0  0  0  0
   -1.4334    0.1224   -0.2347 C   0  0  1  0  0  0  0  0  0  0  0  0
   -1.3473   -0.3742    1.8995 H   0  0  0  0  0  0  0  0  0  0  0  0
   -1.8460   -0.4929   -1.0476 H   0  0  0  0  0  0  0  0  0  0  0  0
   -1.9293   -1.9973    0.8603 O   0  0  0  0  0  0  0  0  0  0  0  0
   -1.6207   -2.4732    0.0673 H   0  0  0  0  0  0  0  0  0  0  0  0
   -2.4867    1.1494    0.1902 C   0  0  0  0  0  0  0  0  0  0  0  0
   -2.8930    2.0299   -0.8393 O   0  0  0  0  0  0  0  0  0  0  0  0
   -2.0694    1.7864    0.9779 H   0  0  0  0  0  0  0  0  0  0  0  0
   -3.3338    0.5937    0.6247 H   0  0  0  0  0  0  0  0  0  0  0  0
   -3.2728    1.4992   -1.5571 H   0  0  0  0  0  0  0  0  0  0  0  0
    2.6604    0.8419   -0.5571 H   0  0  0  0  0  0  0  0  0  0  0  0
    0.9729   -1.5040   -0.4083 C   0  0  1  0  0  0  0  0  0  0  0  0
    2.0219   -1.8128   -0.3120 H   0  0  0  0  0  0  0  0  0  0  0  0
    0.3962   -1.2315    0.9984 C   0  0  1  0  0  0  0  0  0  0  0  0
    0.4321   -2.1823    1.5461 H   0  0  0  0  0  0  0  0  0  0  0  0
    0.1997   -2.5586   -1.0214 O   0  0  0  0  0  0  0  0  0  0  0  0
    0.5240   -3.4054   -0.6770 H   0  0  0  0  0  0  0  0  0  0  0  0
    1.2027   -0.3214    1.7374 O   0  0  0  0  0  0  0  0  0  0  0  0
    0.8222    0.5833    1.7048 H   0  0  0  0  0  0  0  0  0  0  0  0
    2.0222    0.3560   -1.6119 O   0  0  0  0  0  0  0  0  0  0  0  0
    0.3865   -0.5937   -2.3178 H   0  0  0  0  0  0  0  0  0  0  0  0
  1 21  1  0  0  0  0
  2 10  1  0  0  0  0
  2  8  1  0  0  0  0
  5  4  1  0  0  0  0
  7  3  1  0  0  0  0
  9 23  1  0  0  0  0
  9 11  1  1  0  0  0
 10 12  1  6  0  0  0
 10 15  1  0  0  0  0
 10  9  1  0  0  0  0
 13  9  1  0  0  0  0
 14 13  1  0  0  0  0
 15 18  1  0  0  0  0
 15 17  1  0  0  0  0
 16 15  1  0  0  0  0
 19 16  1  0  0  0  0
 20  5  1  0  0  0  0
 21 22  1  1  0  0  0
 21 23  1  0  0  0  0
 23 24  1  1  0  0  0
 23 27  1  0  0  0  0
 25 26  1  0  0  0  0
 25 21  1  0  0  0  0
 28 27  1  0  0  0  0
 29  1  2  0  0  0  0
 30  1  1  0  0  0  0
M  RAD  2   6   2   7   2
M  END
$$$$
