./IRC/b3lyp/chairs/2/glo_2w_alpha_ircf_chair2_B3LYP_631Gd.out
 OpenBabel01251716433D
Gaussian 09 # IRC=(CalcFC,Forward,MaxCycle=1000,MaxPoints=10) B3LYP/6-31G(d)
 30 28  0  0  1  0  0  0  0  0999 V2000
   -0.8145   -0.6145   -0.6405 C   0  0  1  0  0  0  0  0  0  0  0  0
   -0.6116    0.3340    0.5514 O   0  0  0  0  0  0  0  0  0  0  0  0
    0.3395   -1.6297   -0.6118 C   0  0  1  0  0  0  0  0  0  0  0  0
    1.7290   -0.9895   -0.4119 C   0  0  2  0  0  0  0  0  0  0  0  0
    1.7571   -0.0435    0.7976 C   0  0  1  0  0  0  0  0  0  0  0  0
    0.6549    1.0214    0.7075 C   0  0  1  0  0  0  0  0  0  0  0  0
    0.3319   -2.1682   -1.5764 H   0  0  0  0  0  0  0  0  0  0  0  0
    2.7255    0.4629    0.8315 H   0  0  0  0  0  0  0  0  0  0  0  0
    0.6001    1.4813    1.6998 H   0  0  0  0  0  0  0  0  0  0  0  0
    2.4548   -1.7928   -0.2291 H   0  0  0  0  0  0  0  0  0  0  0  0
    0.0984   -2.5404    0.4540 O   0  0  0  0  0  0  0  0  0  0  0  0
    2.0994   -0.2258   -1.5683 O   0  0  0  0  0  0  0  0  0  0  0  0
    1.6380   -0.7893    1.9961 O   0  0  0  0  0  0  0  0  0  0  0  0
    2.2173   -0.8292   -2.3181 H   0  0  0  0  0  0  0  0  0  0  0  0
   -0.8780   -2.5805    0.5119 H   0  0  0  0  0  0  0  0  0  0  0  0
    0.9374   -1.4523    1.8417 H   0  0  0  0  0  0  0  0  0  0  0  0
    0.8379    2.1234   -0.3693 C   0  0  0  0  0  0  0  0  0  0  0  0
    2.1942    2.4702   -0.5882 O   0  0  0  0  0  0  0  0  0  0  0  0
    0.3272    3.0331   -0.0380 H   0  0  0  0  0  0  0  0  0  0  0  0
    0.3586    1.8063   -1.3038 H   0  0  0  0  0  0  0  0  0  0  0  0
    2.5655    1.7364   -1.1090 H   0  0  0  0  0  0  0  0  0  0  0  0
   -0.7913    0.0099   -1.5409 H   0  0  0  0  0  0  0  0  0  0  0  0
   -1.9866   -1.2645   -0.4530 O   0  0  0  0  0  0  0  0  0  0  0  0
   -2.7988   -0.6668   -0.6629 H   0  0  0  0  0  0  0  0  0  0  0  0
   -1.7877    1.1517    0.8000 H   0  0  0  0  0  0  0  0  0  0  0  0
   -3.8480    0.2979   -0.7624 O   0  0  0  0  0  0  0  0  0  0  0  0
   -4.6723   -0.0935   -0.4385 H   0  0  0  0  0  0  0  0  0  0  0  0
   -2.6557    1.6565    0.8797 O   0  0  0  0  0  0  0  0  0  0  0  0
   -2.9589    1.5074    1.7876 H   0  0  0  0  0  0  0  0  0  0  0  0
   -3.5057    0.9441   -0.0519 H   0  0  0  0  0  0  0  0  0  0  0  0
  1 22  1  6  0  0  0
  1  3  1  0  0  0  0
  1 23  1  0  0  0  0
  1  2  1  0  0  0  0
  2  6  1  0  0  0  0
  3  7  1  6  0  0  0
  3  4  1  0  0  0  0
  3 11  1  0  0  0  0
  4 10  1  1  0  0  0
  4  5  1  0  0  0  0
  5  8  1  1  0  0  0
  5 13  1  0  0  0  0
  6  5  1  0  0  0  0
  6  9  1  1  0  0  0
 11 15  1  0  0  0  0
 12  4  1  0  0  0  0
 14 12  1  0  0  0  0
 16 13  1  0  0  0  0
 17 19  1  0  0  0  0
 17  6  1  0  0  0  0
 18 17  1  0  0  0  0
 20 17  1  0  0  0  0
 21 18  1  0  0  0  0
 24 23  1  0  0  0  0
 25 28  1  0  0  0  0
 26 27  1  0  0  0  0
 26 30  1  0  0  0  0
 28 29  1  0  0  0  0
M  END
$$$$
