./IRC/b3lyp/chairs/2/glo_1w_alpha_ircf_chair2_B3LYP_631Gd.out
 OpenBabel01241715093D
Gaussian 09 # IRC=(CalcFC,Forward,MaxCycle=1000,MaxPoints=10) B3LYP/6-31G(d)
 30 28  0  0  1  0  0  0  0  0999 V2000
   -1.4231   -0.0571   -0.8927 C   0  0  1  0  0  0  0  0  0  0  0  0
   -1.0395    0.7925    0.3470 O   0  0  0  0  0  0  0  0  0  0  0  0
   -0.9700   -1.4847   -0.5839 C   0  0  1  0  0  0  0  0  0  0  0  0
    0.5025   -1.5381   -0.1224 C   0  0  2  0  0  0  0  0  0  0  0  0
    0.8093   -0.5631    1.0337 C   0  0  1  0  0  0  0  0  0  0  0  0
    0.3410    0.8726    0.7625 C   0  0  1  0  0  0  0  0  0  0  0  0
   -1.0754   -2.0928   -1.5007 H   0  0  0  0  0  0  0  0  0  0  0  0
    1.8880   -0.5567    1.2184 H   0  0  0  0  0  0  0  0  0  0  0  0
    0.3209    1.3790    1.7333 H   0  0  0  0  0  0  0  0  0  0  0  0
    0.7109   -2.5481    0.2514 H   0  0  0  0  0  0  0  0  0  0  0  0
   -1.8021   -2.0024    0.4424 O   0  0  0  0  0  0  0  0  0  0  0  0
    1.3572   -1.2396   -1.2448 O   0  0  0  0  0  0  0  0  0  0  0  0
    0.2006   -1.0724    2.2108 O   0  0  0  0  0  0  0  0  0  0  0  0
    1.2373   -1.9390   -1.9075 H   0  0  0  0  0  0  0  0  0  0  0  0
   -2.6607   -1.5552    0.2967 H   0  0  0  0  0  0  0  0  0  0  0  0
   -0.7149   -1.3095    1.9678 H   0  0  0  0  0  0  0  0  0  0  0  0
    1.1962    1.7361   -0.1860 C   0  0  0  0  0  0  0  0  0  0  0  0
    2.4626    1.9985    0.3781 O   0  0  0  0  0  0  0  0  0  0  0  0
    0.6777    2.6944   -0.3190 H   0  0  0  0  0  0  0  0  0  0  0  0
    1.2783    1.2680   -1.1762 H   0  0  0  0  0  0  0  0  0  0  0  0
    3.0711    1.2819    0.0925 H   0  0  0  0  0  0  0  0  0  0  0  0
   -0.8890    0.3818   -1.7445 H   0  0  0  0  0  0  0  0  0  0  0  0
   -2.7795    0.0047   -0.9915 O   0  0  0  0  0  0  0  0  0  0  0  0
   -3.0254    0.9790   -0.8275 H   0  0  0  0  0  0  0  0  0  0  0  0
   -1.9714    1.9483    0.2070 H   0  0  0  0  0  0  0  0  0  0  0  0
   -2.8047    2.3098   -0.2105 O   0  0  0  0  0  0  0  0  0  0  0  0
   -3.4358    2.4191    0.5168 H   0  0  0  0  0  0  0  0  0  0  0  0
    3.8888   -0.1351   -0.7070 O   0  0  0  0  0  0  0  0  0  0  0  0
    4.2584    0.2052   -1.5356 H   0  0  0  0  0  0  0  0  0  0  0  0
    3.0979   -0.6502   -0.9706 H   0  0  0  0  0  0  0  0  0  0  0  0
  1 22  1  6  0  0  0
  1  3  1  0  0  0  0
  1  2  1  0  0  0  0
  2  6  1  0  0  0  0
  3  7  1  6  0  0  0
  3  4  1  0  0  0  0
  3 11  1  0  0  0  0
  4 10  1  1  0  0  0
  4  5  1  0  0  0  0
  5  8  1  1  0  0  0
  5 13  1  0  0  0  0
  6  5  1  0  0  0  0
  6  9  1  1  0  0  0
 12  4  1  0  0  0  0
 14 12  1  0  0  0  0
 15 11  1  0  0  0  0
 16 13  1  0  0  0  0
 17 18  1  0  0  0  0
 17  6  1  0  0  0  0
 19 17  1  0  0  0  0
 20 17  1  0  0  0  0
 21 18  1  0  0  0  0
 23  1  1  0  0  0  0
 23 24  1  0  0  0  0
 26 25  1  0  0  0  0
 26 27  1  0  0  0  0
 29 28  1  0  0  0  0
 30 28  1  0  0  0  0
M  END
$$$$
