./opt_IRC/b3lyp/boats/6/glo_2w_alpha_ircr_boat6_B3LYP_631Gd_opt.out
 OpenBabel01241715093D
Gaussian 09 # b3lyp/6-31g(d) opt freq
 30 28  0  0  1  0  0  0  0  0999 V2000
   -0.2462    0.9725   -0.2643 C   0  0  2  0  0  0  0  0  0  0  0  0
   -2.1853   -0.3327    0.7212 C   0  0  1  0  0  0  0  0  0  0  0  0
   -1.7763    0.9806    0.0119 C   0  0  2  0  0  0  0  0  0  0  0  0
   -1.4271   -1.5105    0.0918 C   0  0  2  0  0  0  0  0  0  0  0  0
   -1.7414   -2.4549    0.5564 H   0  0  0  0  0  0  0  0  0  0  0  0
   -3.2612   -0.4681    0.5801 H   0  0  0  0  0  0  0  0  0  0  0  0
   -0.0746    0.6293   -1.2896 H   0  0  0  0  0  0  0  0  0  0  0  0
   -2.0392    1.8050    0.6860 H   0  0  0  0  0  0  0  0  0  0  0  0
    0.1006   -1.3279    0.3233 C   0  0  2  0  0  0  0  0  0  0  0  0
    0.4061    0.0545    0.6411 O   0  0  0  0  0  0  0  0  0  0  0  0
    0.3591    2.3525   -0.1169 C   0  0  0  0  0  0  0  0  0  0  0  0
   -0.2938    3.0546   -0.6517 H   0  0  0  0  0  0  0  0  0  0  0  0
    0.3849    2.6377    0.9457 H   0  0  0  0  0  0  0  0  0  0  0  0
    1.6767    2.3716   -0.6862 O   0  0  0  0  0  0  0  0  0  0  0  0
    1.9941    3.2879   -0.6725 H   0  0  0  0  0  0  0  0  0  0  0  0
   -1.7316   -1.5211   -1.3027 O   0  0  0  0  0  0  0  0  0  0  0  0
   -0.9298   -1.8713   -1.7375 H   0  0  0  0  0  0  0  0  0  0  0  0
   -1.9661   -0.2811    2.1256 O   0  0  0  0  0  0  0  0  0  0  0  0
   -1.0329   -0.0337    2.2414 H   0  0  0  0  0  0  0  0  0  0  0  0
   -2.4930    1.2019   -1.1897 O   0  0  0  0  0  0  0  0  0  0  0  0
   -2.4054    0.3659   -1.6872 H   0  0  0  0  0  0  0  0  0  0  0  0
    3.3639   -1.8033   -0.2746 O   0  0  0  0  0  0  0  0  0  0  0  0
    1.7362   -1.8335   -0.6458 H   0  0  0  0  0  0  0  0  0  0  0  0
    3.4701   -0.9049    0.1444 H   0  0  0  0  0  0  0  0  0  0  0  0
    3.8989   -1.7745   -1.0818 H   0  0  0  0  0  0  0  0  0  0  0  0
    0.7507   -1.7664   -0.8150 O   0  0  0  0  0  0  0  0  0  0  0  0
    0.4270   -1.8634    1.2217 H   0  0  0  0  0  0  0  0  0  0  0  0
    3.2021    0.6177    0.9122 O   0  0  0  0  0  0  0  0  0  0  0  0
    2.9143    1.2573    0.2267 H   0  0  0  0  0  0  0  0  0  0  0  0
    2.3323    0.3686    1.2759 H   0  0  0  0  0  0  0  0  0  0  0  0
  1  7  1  6  0  0  0
  1 11  1  0  0  0  0
  1  3  1  0  0  0  0
  1 10  1  0  0  0  0
  2  6  1  6  0  0  0
  2 18  1  0  0  0  0
  3  8  1  1  0  0  0
  3  2  1  0  0  0  0
  4  9  1  0  0  0  0
  4  5  1  1  0  0  0
  4  2  1  0  0  0  0
  9 10  1  0  0  0  0
  9 27  1  1  0  0  0
 11 13  1  0  0  0  0
 12 11  1  0  0  0  0
 14 15  1  0  0  0  0
 14 11  1  0  0  0  0
 16  4  1  0  0  0  0
 17 16  1  0  0  0  0
 18 19  1  0  0  0  0
 20  3  1  0  0  0  0
 21 20  1  0  0  0  0
 22 24  1  0  0  0  0
 25 22  1  0  0  0  0
 26 23  1  0  0  0  0
 26  9  1  0  0  0  0
 28 30  1  0  0  0  0
 29 28  1  0  0  0  0
M  END
$$$$
