./opt_IRC/b3lyp/boats/6/glo_1w_alpha_ircf_boat6_B3LYP_631Gd_opt.out
 OpenBabel01251716433D
Gaussian 09 # b3lyp/6-31g(d) opt freq
 30 28  0  0  1  0  0  0  0  0999 V2000
   -0.4014    0.8307    0.1445 C   0  0  2  0  0  0  0  0  0  0  0  0
    1.5474   -0.7762    0.0753 C   0  0  1  0  0  0  0  0  0  0  0  0
    1.1136    0.7182   -0.0321 C   0  0  2  0  0  0  0  0  0  0  0  0
    0.3828   -1.7757    0.2377 C   0  0  2  0  0  0  0  0  0  0  0  0
    0.7404   -2.7691   -0.0743 H   0  0  0  0  0  0  0  0  0  0  0  0
    2.1511   -0.8784    0.9794 H   0  0  0  0  0  0  0  0  0  0  0  0
   -0.6920    0.4992    1.1469 H   0  0  0  0  0  0  0  0  0  0  0  0
    1.3209    1.0365   -1.0709 H   0  0  0  0  0  0  0  0  0  0  0  0
   -0.8674   -1.4093   -0.6120 C   0  0  2  0  0  0  0  0  0  0  0  0
   -0.9713   -0.0166   -0.8639 O   0  0  0  0  0  0  0  0  0  0  0  0
   -0.9287    2.2297   -0.0916 C   0  0  0  0  0  0  0  0  0  0  0  0
   -0.3959    2.9248    0.5670 H   0  0  0  0  0  0  0  0  0  0  0  0
   -0.7493    2.5149   -1.1378 H   0  0  0  0  0  0  0  0  0  0  0  0
   -2.3362    2.2285    0.1983 O   0  0  0  0  0  0  0  0  0  0  0  0
   -2.6972    3.0916   -0.0537 H   0  0  0  0  0  0  0  0  0  0  0  0
    0.0482   -1.7738    1.6145 O   0  0  0  0  0  0  0  0  0  0  0  0
   -0.9078   -1.9824    1.6286 H   0  0  0  0  0  0  0  0  0  0  0  0
    2.4313   -1.1445   -1.0042 O   0  0  0  0  0  0  0  0  0  0  0  0
    1.9812   -0.9465   -1.8419 H   0  0  0  0  0  0  0  0  0  0  0  0
    1.7782    1.5559    0.8843 O   0  0  0  0  0  0  0  0  0  0  0  0
    2.7303    1.5172    0.6383 H   0  0  0  0  0  0  0  0  0  0  0  0
   -3.9559   -0.0559   -0.3389 O   0  0  0  0  0  0  0  0  0  0  0  0
   -2.7681   -1.3297   -0.1635 H   0  0  0  0  0  0  0  0  0  0  0  0
   -3.3477    0.7165   -0.3221 H   0  0  0  0  0  0  0  0  0  0  0  0
   -4.4361    0.0092    0.5008 H   0  0  0  0  0  0  0  0  0  0  0  0
    4.2537    0.8514   -0.2290 O   0  0  0  0  0  0  0  0  0  0  0  0
    4.8807    0.4653    0.4009 H   0  0  0  0  0  0  0  0  0  0  0  0
    3.8195    0.0785   -0.6530 H   0  0  0  0  0  0  0  0  0  0  0  0
   -1.9859   -1.8941    0.0810 O   0  0  0  0  0  0  0  0  0  0  0  0
   -0.8042   -1.8602   -1.6122 H   0  0  0  0  0  0  0  0  0  0  0  0
  1  7  1  1  0  0  0
  2  4  1  0  0  0  0
  2  6  1  1  0  0  0
  3  8  1  6  0  0  0
  3  2  1  0  0  0  0
  3  1  1  0  0  0  0
  3 20  1  0  0  0  0
  4  5  1  6  0  0  0
  4 16  1  0  0  0  0
  9 30  1  6  0  0  0
  9 29  1  0  0  0  0
  9  4  1  0  0  0  0
 10  9  1  0  0  0  0
 10  1  1  0  0  0  0
 11  1  1  0  0  0  0
 11 14  1  0  0  0  0
 11 12  1  0  0  0  0
 13 11  1  0  0  0  0
 15 14  1  0  0  0  0
 16 17  1  0  0  0  0
 18  2  1  0  0  0  0
 19 18  1  0  0  0  0
 21 20  1  0  0  0  0
 22 24  1  0  0  0  0
 22 25  1  0  0  0  0
 23 29  1  0  0  0  0
 26 27  1  0  0  0  0
 28 26  1  0  0  0  0
M  END
$$$$
