./opt_IRC/b3lyp/boats/6/glo_1w_beta_ircr_boat6_B3LYP_631Gd_opt.out
 OpenBabel01241715093D
Gaussian 09 # b3lyp/6-31g(d) opt freq
 30 28  0  0  1  0  0  0  0  0999 V2000
   -0.6808    0.8278    0.6532 C   0  0  2  0  0  0  0  0  0  0  0  0
    1.4715   -0.5405    0.4416 C   0  0  1  0  0  0  0  0  0  0  0  0
    0.7200    0.7554    0.0299 C   0  0  2  0  0  0  0  0  0  0  0  0
    0.5227   -1.6428    0.9620 C   0  0  2  0  0  0  0  0  0  0  0  0
    0.9975   -2.6184    0.7862 H   0  0  0  0  0  0  0  0  0  0  0  0
    2.1823   -0.2774    1.2327 H   0  0  0  0  0  0  0  0  0  0  0  0
   -0.6009    0.9027    1.7428 H   0  0  0  0  0  0  0  0  0  0  0  0
    0.5874    0.7063   -1.0625 H   0  0  0  0  0  0  0  0  0  0  0  0
   -0.7741   -1.5815    0.1623 C   0  0  1  0  0  0  0  0  0  0  0  0
   -1.4878   -2.3450    0.4918 H   0  0  0  0  0  0  0  0  0  0  0  0
   -1.4551   -0.3500    0.3415 O   0  0  0  0  0  0  0  0  0  0  0  0
   -1.4452    2.0306    0.1206 C   0  0  0  0  0  0  0  0  0  0  0  0
   -0.8900    2.9320    0.4071 H   0  0  0  0  0  0  0  0  0  0  0  0
   -1.4644    1.9812   -0.9828 H   0  0  0  0  0  0  0  0  0  0  0  0
   -2.7629    2.0126    0.6556 O   0  0  0  0  0  0  0  0  0  0  0  0
   -3.1663    2.8736    0.4701 H   0  0  0  0  0  0  0  0  0  0  0  0
   -0.4064   -1.7795   -1.1901 O   0  0  0  0  0  0  0  0  0  0  0  0
    0.1748   -1.4683    2.3272 O   0  0  0  0  0  0  0  0  0  0  0  0
    0.9827   -1.5682    2.8539 H   0  0  0  0  0  0  0  0  0  0  0  0
    2.2582   -1.0479   -0.6495 O   0  0  0  0  0  0  0  0  0  0  0  0
    1.5995   -1.3747   -1.2950 H   0  0  0  0  0  0  0  0  0  0  0  0
    1.4247    1.9240    0.3965 O   0  0  0  0  0  0  0  0  0  0  0  0
    2.2295    1.9455   -0.1724 H   0  0  0  0  0  0  0  0  0  0  0  0
   -2.8752   -0.8476   -2.0009 O   0  0  0  0  0  0  0  0  0  0  0  0
   -1.2188   -1.5980   -1.7227 H   0  0  0  0  0  0  0  0  0  0  0  0
   -2.8691   -0.1230   -2.6444 H   0  0  0  0  0  0  0  0  0  0  0  0
   -2.7823   -0.4067   -1.1307 H   0  0  0  0  0  0  0  0  0  0  0  0
    3.5609    1.3261   -1.2750 O   0  0  0  0  0  0  0  0  0  0  0  0
    4.4143    1.3293   -0.8160 H   0  0  0  0  0  0  0  0  0  0  0  0
    3.2509    0.3929   -1.2191 H   0  0  0  0  0  0  0  0  0  0  0  0
  1  7  1  1  0  0  0
  2  4  1  0  0  0  0
  2  6  1  1  0  0  0
  3  8  1  6  0  0  0
  3 22  1  0  0  0  0
  3  2  1  0  0  0  0
  3  1  1  0  0  0  0
  4  5  1  6  0  0  0
  4 18  1  0  0  0  0
  9 11  1  0  0  0  0
  9 10  1  1  0  0  0
  9  4  1  0  0  0  0
 11  1  1  0  0  0  0
 12 13  1  0  0  0  0
 12  1  1  0  0  0  0
 12 15  1  0  0  0  0
 14 12  1  0  0  0  0
 16 15  1  0  0  0  0
 17  9  1  0  0  0  0
 18 19  1  0  0  0  0
 20  2  1  0  0  0  0
 21 20  1  0  0  0  0
 23 22  1  0  0  0  0
 24 27  1  0  0  0  0
 25 17  1  0  0  0  0
 26 24  1  0  0  0  0
 28 30  1  0  0  0  0
 28 29  1  0  0  0  0
M  END
$$$$
