./opt_IRC/b3lyp/boats/6/glo_2w_beta_ircr_boat6_B3LYP_631Gd_opt.out
 OpenBabel01251716433D
Gaussian 09 # b3lyp/6-31g(d) opt freq
 30 27  0  0  1  0  0  0  0  0999 V2000
   -1.3182    0.5570   -0.3086 C   0  0  2  0  0  0  0  0  0  0  0  0
   -0.0909   -1.3906    0.9854 C   0  0  1  0  0  0  0  0  0  0  0  0
   -1.2908   -0.4141    0.8972 C   0  0  2  0  0  0  0  0  0  0  0  0
    0.2800   -2.0649   -0.3684 C   0  0  2  0  0  0  0  0  0  0  0  0
    0.8915   -2.9497   -0.1219 H   0  0  0  0  0  0  0  0  0  0  0  0
   -0.4348   -2.2016    1.6474 H   0  0  0  0  0  0  0  0  0  0  0  0
   -1.8372    0.0448   -1.1250 H   0  0  0  0  0  0  0  0  0  0  0  0
   -1.2963    0.1519    1.8406 H   0  0  0  0  0  0  0  0  0  0  0  0
    1.2088   -1.1950   -1.2086 C   0  0  0  0  0  0  0  0  0  0  0  0
    0.8832   -0.9584   -2.2314 H   0  0  0  0  0  0  0  0  0  0  0  0
   -0.0265    0.8550   -0.7960 O   0  0  0  0  0  0  0  0  0  0  0  0
   -2.1171    1.8113    0.0416 C   0  0  0  0  0  0  0  0  0  0  0  0
   -3.0333    1.5044    0.5732 H   0  0  0  0  0  0  0  0  0  0  0  0
   -1.5156    2.4321    0.7247 H   0  0  0  0  0  0  0  0  0  0  0  0
   -2.4201    2.4962   -1.1629 O   0  0  0  0  0  0  0  0  0  0  0  0
   -2.7523    3.3758   -0.9308 H   0  0  0  0  0  0  0  0  0  0  0  0
    2.3331   -0.9169   -0.7920 O   0  0  0  0  0  0  0  0  0  0  0  0
   -0.8463   -2.4668   -1.1140 O   0  0  0  0  0  0  0  0  0  0  0  0
   -1.6532   -2.2401   -0.6129 H   0  0  0  0  0  0  0  0  0  0  0  0
    1.0343   -0.7819    1.6080 O   0  0  0  0  0  0  0  0  0  0  0  0
    1.7868   -0.8399    0.9816 H   0  0  0  0  0  0  0  0  0  0  0  0
   -2.5053   -1.1850    0.7792 O   0  0  0  0  0  0  0  0  0  0  0  0
   -2.6711   -1.6346    1.6236 H   0  0  0  0  0  0  0  0  0  0  0  0
    1.3281    2.0589    1.2181 O   0  0  0  0  0  0  0  0  0  0  0  0
    2.2151    2.0408    0.7856 H   0  0  0  0  0  0  0  0  0  0  0  0
    1.2839    1.2126    1.7025 H   0  0  0  0  0  0  0  0  0  0  0  0
    0.4467    1.4184   -0.1232 H   0  0  0  0  0  0  0  0  0  0  0  0
    3.6008    1.5441   -0.2859 O   0  0  0  0  0  0  0  0  0  0  0  0
    3.2554    0.7510   -0.7429 H   0  0  0  0  0  0  0  0  0  0  0  0
    4.4159    1.2421    0.1415 H   0  0  0  0  0  0  0  0  0  0  0  0
  1  7  1  6  0  0  0
  1 12  1  0  0  0  0
  1  3  1  0  0  0  0
  2 20  1  0  0  0  0
  2  6  1  1  0  0  0
  3  2  1  0  0  0  0
  3  8  1  1  0  0  0
  4  5  1  1  0  0  0
  4  2  1  0  0  0  0
  9 17  2  0  0  0  0
  9  4  1  0  0  0  0
 10  9  1  0  0  0  0
 11  1  1  0  0  0  0
 11 27  1  0  0  0  0
 12 13  1  0  0  0  0
 12 14  1  0  0  0  0
 15 16  1  0  0  0  0
 15 12  1  0  0  0  0
 18 19  1  0  0  0  0
 18  4  1  0  0  0  0
 21 20  1  0  0  0  0
 22  3  1  0  0  0  0
 22 23  1  0  0  0  0
 24 26  1  0  0  0  0
 25 24  1  0  0  0  0
 28 30  1  0  0  0  0
 29 28  1  0  0  0  0
M  END
$$$$
