./TS/b3lyp/chairs/2/glo_1w_beta_ts_chair2_B3LYP_631Gd.out
 OpenBabel01251716443D
Gaussian 09 # opt=(calcfc,ts,noeigentest,maxcycle=1000,cartesian) freq B3LYP/6-3
 30 27  0  0  1  0  0  0  0  0999 V2000
   -1.7202    0.4667   -0.5031 C   0  0  0  0  0  0  0  0  0  0  0  0
   -1.0617    0.8244    0.9017 O   0  0  0  0  0  0  0  0  0  0  0  0
   -1.5987   -1.0426   -0.7101 C   0  0  1  0  0  0  0  0  0  0  0  0
   -0.1235   -1.4671   -0.6185 C   0  0  2  0  0  0  0  0  0  0  0  0
    0.4686   -1.1346    0.7716 C   0  0  1  0  0  0  0  0  0  0  0  0
    0.3153    0.3397    1.1812 C   0  0  1  0  0  0  0  0  0  0  0  0
   -1.9643   -1.2484   -1.7260 H   0  0  0  0  0  0  0  0  0  0  0  0
    1.5427   -1.3351    0.7505 H   0  0  0  0  0  0  0  0  0  0  0  0
    0.3802    0.3610    2.2721 H   0  0  0  0  0  0  0  0  0  0  0  0
   -0.0551   -2.5515   -0.7474 H   0  0  0  0  0  0  0  0  0  0  0  0
   -2.3387   -1.7891    0.2545 O   0  0  0  0  0  0  0  0  0  0  0  0
    0.5922   -0.8561   -1.6966 O   0  0  0  0  0  0  0  0  0  0  0  0
   -0.0638   -2.0099    1.7548 O   0  0  0  0  0  0  0  0  0  0  0  0
    0.1662    0.0223   -1.8561 H   0  0  0  0  0  0  0  0  0  0  0  0
   -3.2499   -1.4560    0.2759 H   0  0  0  0  0  0  0  0  0  0  0  0
   -1.0318   -2.0022    1.6451 H   0  0  0  0  0  0  0  0  0  0  0  0
    1.3891    1.3071    0.6272 C   0  0  0  0  0  0  0  0  0  0  0  0
    2.6665    0.9009    1.0569 O   0  0  0  0  0  0  0  0  0  0  0  0
    1.1932    2.3076    1.0294 H   0  0  0  0  0  0  0  0  0  0  0  0
    1.3254    1.3806   -0.4640 H   0  0  0  0  0  0  0  0  0  0  0  0
    3.0459    0.3401    0.3419 H   0  0  0  0  0  0  0  0  0  0  0  0
   -1.1624    1.1922   -1.4658 O   0  0  0  0  0  0  0  0  0  0  0  0
   -1.1291    2.4044   -0.8667 H   0  0  0  0  0  0  0  0  0  0  0  0
   -2.7569    0.7488   -0.2323 H   0  0  0  0  0  0  0  0  0  0  0  0
   -1.0709    2.0076    0.7322 H   0  0  0  0  0  0  0  0  0  0  0  0
   -1.0789    3.0636    0.0473 O   0  0  0  0  0  0  0  0  0  0  0  0
   -1.9106    3.5574    0.1378 H   0  0  0  0  0  0  0  0  0  0  0  0
    3.3171   -0.6309   -1.1575 O   0  0  0  0  0  0  0  0  0  0  0  0
    2.4022   -0.7790   -1.4897 H   0  0  0  0  0  0  0  0  0  0  0  0
    3.7667   -0.1325   -1.8558 H   0  0  0  0  0  0  0  0  0  0  0  0
  1 24  1  0  0  0  0
  2  6  1  0  0  0  0
  3  7  1  6  0  0  0
  3  4  1  0  0  0  0
  3  1  1  0  0  0  0
  3 11  1  0  0  0  0
  4 10  1  6  0  0  0
  4  5  1  0  0  0  0
  5  8  1  6  0  0  0
  5  6  1  0  0  0  0
  5 13  1  0  0  0  0
  6  9  1  1  0  0  0
 11 15  1  0  0  0  0
 12  4  1  0  0  0  0
 14 12  1  0  0  0  0
 16 13  1  0  0  0  0
 17 19  1  0  0  0  0
 17 18  1  0  0  0  0
 17  6  1  0  0  0  0
 20 17  1  0  0  0  0
 21 18  1  0  0  0  0
 22  1  1  0  0  0  0
 23 26  1  0  0  0  0
 25  2  1  0  0  0  0
 26 27  1  0  0  0  0
 29 28  1  0  0  0  0
 30 28  1  0  0  0  0
M  RAD  2   1   2  22   2
M  END
$$$$
