./TS/b3lyp/chairs/2/glo_2w_alpha_ts_chair2_B3LYP_631Gd.out
 OpenBabel01251716443D
Gaussian 09 # opt=(calcfc,ts,noeigentest,maxcycle=1000,cartesian) freq B3LYP/6-3
 30 26  0  0  1  0  0  0  0  0999 V2000
   -0.8179   -0.6580   -0.6541 C   0  0  0  0  0  0  0  0  0  0  0  0
   -0.5980    0.3423    0.5749 O   0  0  0  0  0  0  0  0  0  0  0  0
    0.3660   -1.6413   -0.6017 C   0  0  1  0  0  0  0  0  0  0  0  0
    1.7504   -1.0018   -0.4039 C   0  0  2  0  0  0  0  0  0  0  0  0
    1.7749   -0.0563    0.8051 C   0  0  1  0  0  0  0  0  0  0  0  0
    0.6774    1.0183    0.7212 C   0  0  1  0  0  0  0  0  0  0  0  0
    0.3580   -2.1769   -1.5690 H   0  0  0  0  0  0  0  0  0  0  0  0
    2.7404    0.4560    0.8393 H   0  0  0  0  0  0  0  0  0  0  0  0
    0.6411    1.4815    1.7129 H   0  0  0  0  0  0  0  0  0  0  0  0
    2.4815   -1.8002   -0.2196 H   0  0  0  0  0  0  0  0  0  0  0  0
    0.1192   -2.5516    0.4611 O   0  0  0  0  0  0  0  0  0  0  0  0
    2.1206   -0.2370   -1.5606 O   0  0  0  0  0  0  0  0  0  0  0  0
    1.6577   -0.8010    2.0037 O   0  0  0  0  0  0  0  0  0  0  0  0
    2.2345   -0.8413   -2.3103 H   0  0  0  0  0  0  0  0  0  0  0  0
   -0.8655   -2.5624    0.4998 H   0  0  0  0  0  0  0  0  0  0  0  0
    0.9643   -1.4722    1.8438 H   0  0  0  0  0  0  0  0  0  0  0  0
    0.8588    2.1125   -0.3622 C   0  0  0  0  0  0  0  0  0  0  0  0
    2.2146    2.4580   -0.5806 O   0  0  0  0  0  0  0  0  0  0  0  0
    0.3490    3.0242   -0.0332 H   0  0  0  0  0  0  0  0  0  0  0  0
    0.3796    1.7911   -1.2947 H   0  0  0  0  0  0  0  0  0  0  0  0
    2.5846    1.7237   -1.1022 H   0  0  0  0  0  0  0  0  0  0  0  0
   -0.7688    0.0078   -1.5288 H   0  0  0  0  0  0  0  0  0  0  0  0
   -1.9545   -1.2784   -0.4442 O   0  0  0  0  0  0  0  0  0  0  0  0
   -3.0490   -0.4920   -0.7068 H   0  0  0  0  0  0  0  0  0  0  0  0
   -1.6205    1.0380    0.7629 H   0  0  0  0  0  0  0  0  0  0  0  0
   -3.8268    0.2797   -0.7561 O   0  0  0  0  0  0  0  0  0  0  0  0
   -4.6512   -0.1358   -0.4592 H   0  0  0  0  0  0  0  0  0  0  0  0
   -2.6294    1.6321    0.8768 O   0  0  0  0  0  0  0  0  0  0  0  0
   -2.9553    1.4800    1.7792 H   0  0  0  0  0  0  0  0  0  0  0  0
   -3.3072    1.0845    0.1596 H   0  0  0  0  0  0  0  0  0  0  0  0
  1  3  1  0  0  0  0
  1 23  1  0  0  0  0
  2  6  1  0  0  0  0
  3  7  1  6  0  0  0
  3  4  1  0  0  0  0
  3 11  1  0  0  0  0
  4 10  1  1  0  0  0
  4  5  1  0  0  0  0
  5  8  1  1  0  0  0
  5 13  1  0  0  0  0
  6  5  1  0  0  0  0
  6  9  1  1  0  0  0
 11 15  1  0  0  0  0
 12  4  1  0  0  0  0
 14 12  1  0  0  0  0
 16 13  1  0  0  0  0
 17 19  1  0  0  0  0
 17  6  1  0  0  0  0
 18 17  1  0  0  0  0
 20 17  1  0  0  0  0
 21 18  1  0  0  0  0
 22  1  1  0  0  0  0
 26 24  1  0  0  0  0
 26 27  1  0  0  0  0
 28 29  1  0  0  0  0
 30 28  1  0  0  0  0
M  RAD  4   1   2   2   2  23   2  25   2
M  END
$$$$
