./TS/b3lyp/chairs/2/glo_1w_alpha_ts_chair2_B3LYP_631Gd.out
 OpenBabel01251716443D
Gaussian 09 # opt=(calcfc,ts,noeigentest,maxcycle=1000,cartesian) freq B3LYP/6-3
 30 27  0  0  1  0  0  0  0  0999 V2000
   -1.4755   -0.0883   -0.9132 C   0  0  0  0  0  0  0  0  0  0  0  0
   -1.0556    0.8031    0.3777 O   0  0  0  0  0  0  0  0  0  0  0  0
   -0.9786   -1.4950   -0.5651 C   0  0  1  0  0  0  0  0  0  0  0  0
    0.4897   -1.5473   -0.1067 C   0  0  2  0  0  0  0  0  0  0  0  0
    0.7922   -0.5712    1.0481 C   0  0  1  0  0  0  0  0  0  0  0  0
    0.3331    0.8743    0.7860 C   0  0  1  0  0  0  0  0  0  0  0  0
   -1.0823   -2.1011   -1.4844 H   0  0  0  0  0  0  0  0  0  0  0  0
    1.8710   -0.5546    1.2321 H   0  0  0  0  0  0  0  0  0  0  0  0
    0.3307    1.3747    1.7593 H   0  0  0  0  0  0  0  0  0  0  0  0
    0.7048   -2.5553    0.2695 H   0  0  0  0  0  0  0  0  0  0  0  0
   -1.8148   -2.0104    0.4575 O   0  0  0  0  0  0  0  0  0  0  0  0
    1.3449   -1.2481   -1.2292 O   0  0  0  0  0  0  0  0  0  0  0  0
    0.1873   -1.0804    2.2259 O   0  0  0  0  0  0  0  0  0  0  0  0
    1.2209   -1.9458   -1.8929 H   0  0  0  0  0  0  0  0  0  0  0  0
   -2.6669   -1.5473    0.2878 H   0  0  0  0  0  0  0  0  0  0  0  0
   -0.7252   -1.3307    1.9801 H   0  0  0  0  0  0  0  0  0  0  0  0
    1.1840    1.7286   -0.1715 C   0  0  0  0  0  0  0  0  0  0  0  0
    2.4494    1.9893    0.3934 O   0  0  0  0  0  0  0  0  0  0  0  0
    0.6677    2.6882   -0.3070 H   0  0  0  0  0  0  0  0  0  0  0  0
    1.2630    1.2560   -1.1589 H   0  0  0  0  0  0  0  0  0  0  0  0
    3.0585    1.2735    0.1050 H   0  0  0  0  0  0  0  0  0  0  0  0
   -0.8951    0.3841   -1.7213 H   0  0  0  0  0  0  0  0  0  0  0  0
   -2.7826   -0.0121   -0.9785 O   0  0  0  0  0  0  0  0  0  0  0  0
   -3.0427    1.3194   -0.6892 H   0  0  0  0  0  0  0  0  0  0  0  0
   -1.7862    1.7333    0.2523 H   0  0  0  0  0  0  0  0  0  0  0  0
   -2.8124    2.2859   -0.1982 O   0  0  0  0  0  0  0  0  0  0  0  0
   -3.4547    2.3937    0.5231 H   0  0  0  0  0  0  0  0  0  0  0  0
    3.8755   -0.1435   -0.6916 O   0  0  0  0  0  0  0  0  0  0  0  0
    4.2470    0.1951   -1.5201 H   0  0  0  0  0  0  0  0  0  0  0  0
    3.0859   -0.6609   -0.9563 H   0  0  0  0  0  0  0  0  0  0  0  0
  1  3  1  0  0  0  0
  2  6  1  0  0  0  0
  3  7  1  6  0  0  0
  3  4  1  0  0  0  0
  3 11  1  0  0  0  0
  4 10  1  1  0  0  0
  4  5  1  0  0  0  0
  5  8  1  1  0  0  0
  5 13  1  0  0  0  0
  6  5  1  0  0  0  0
  6  9  1  1  0  0  0
 12  4  1  0  0  0  0
 14 12  1  0  0  0  0
 15 11  1  0  0  0  0
 16 13  1  0  0  0  0
 17 18  1  0  0  0  0
 17  6  1  0  0  0  0
 19 17  1  0  0  0  0
 20 17  1  0  0  0  0
 21 18  1  0  0  0  0
 22  1  1  0  0  0  0
 23  1  1  0  0  0  0
 24 26  1  0  0  0  0
 25  2  1  0  0  0  0
 26 27  1  0  0  0  0
 29 28  1  0  0  0  0
 30 28  1  0  0  0  0
M  RAD  2   1   2  23   2
M  END
$$$$
