./opt_IRC/b3lyp/init_boats/4/glo_1w_beta_boat4_b3lyp_631Gd_iopt.out
 OpenBabel01251716433D
Gaussian 09 # opt=(modredundant,MaxCycle=1000) freq B3LYP/6-31G(d)
 30 28  0  0  1  0  0  0  0  0999 V2000
   -1.5249   -0.1587    0.7707 O   0  0  0  0  0  0  0  0  0  0  0  0
    0.6776    0.5005   -0.2155 C   0  0  1  0  0  0  0  0  0  0  0  0
    0.0984   -1.9405    0.2061 C   0  0  2  0  0  0  0  0  0  0  0  0
    1.2305   -0.8960    0.0971 C   0  0  1  0  0  0  0  0  0  0  0  0
   -1.3040   -1.3513   -0.0041 C   0  0  2  0  0  0  0  0  0  0  0  0
   -0.5056    0.8521    0.7061 C   0  0  1  0  0  0  0  0  0  0  0  0
    1.7014   -0.8427    1.0918 H   0  0  0  0  0  0  0  0  0  0  0  0
   -0.1005    0.9757    1.7218 H   0  0  0  0  0  0  0  0  0  0  0  0
    0.3654    0.5222   -1.2654 H   0  0  0  0  0  0  0  0  0  0  0  0
   -2.0600   -2.0389    0.4012 H   0  0  0  0  0  0  0  0  0  0  0  0
   -1.2077    2.1491    0.2742 C   0  0  0  0  0  0  0  0  0  0  0  0
   -1.5711    2.0315   -0.7515 H   0  0  0  0  0  0  0  0  0  0  0  0
   -2.0722    2.3348    0.9273 H   0  0  0  0  0  0  0  0  0  0  0  0
    0.2665   -2.6838   -0.5817 H   0  0  0  0  0  0  0  0  0  0  0  0
   -1.4969   -1.1226   -1.3665 O   0  0  0  0  0  0  0  0  0  0  0  0
   -2.4268   -0.8195   -1.4638 H   0  0  0  0  0  0  0  0  0  0  0  0
   -0.3338    3.2844    0.2528 O   0  0  0  0  0  0  0  0  0  0  0  0
   -0.1490    3.5346    1.1726 H   0  0  0  0  0  0  0  0  0  0  0  0
    0.1967   -2.5195    1.5067 O   0  0  0  0  0  0  0  0  0  0  0  0
   -0.3669   -3.3088    1.5273 H   0  0  0  0  0  0  0  0  0  0  0  0
    2.1375   -1.3466   -0.8837 O   0  0  0  0  0  0  0  0  0  0  0  0
    2.9693   -0.8261   -0.8072 H   0  0  0  0  0  0  0  0  0  0  0  0
    1.7183    1.4647    0.0182 O   0  0  0  0  0  0  0  0  0  0  0  0
    1.3206    2.3408   -0.1529 H   0  0  0  0  0  0  0  0  0  0  0  0
   -3.9637    0.0017   -0.7059 O   0  0  0  0  0  0  0  0  0  0  0  0
   -4.1854    0.8644   -1.0874 H   0  0  0  0  0  0  0  0  0  0  0  0
   -3.3828    0.2006    0.0548 H   0  0  0  0  0  0  0  0  0  0  0  0
    4.2318    0.4561   -0.4938 O   0  0  0  0  0  0  0  0  0  0  0  0
    4.5795    0.3134    0.3996 H   0  0  0  0  0  0  0  0  0  0  0  0
    3.4567    1.0438   -0.3595 H   0  0  0  0  0  0  0  0  0  0  0  0
  2  9  1  6  0  0  0
  2 23  1  0  0  0  0
  2  4  1  0  0  0  0
  2  6  1  0  0  0  0
  3 14  1  6  0  0  0
  3 19  1  0  0  0  0
  4  3  1  0  0  0  0
  4  7  1  1  0  0  0
  5  3  1  0  0  0  0
  5 10  1  1  0  0  0
  5  1  1  0  0  0  0
  6  1  1  0  0  0  0
  6  8  1  1  0  0  0
 11  6  1  0  0  0  0
 11 13  1  0  0  0  0
 12 11  1  0  0  0  0
 15  5  1  0  0  0  0
 16 15  1  0  0  0  0
 17 11  1  0  0  0  0
 17 18  1  0  0  0  0
 19 20  1  0  0  0  0
 21 22  1  0  0  0  0
 21  4  1  0  0  0  0
 24 23  1  0  0  0  0
 25 27  1  0  0  0  0
 26 25  1  0  0  0  0
 28 30  1  0  0  0  0
 28 29  1  0  0  0  0
M  END
$$$$
