./opt_IRC/b3lyp/init_boats/4/glo_1w_alpha_boat4_b3lyp_631Gd_iopt.out
 OpenBabel01251716433D
Gaussian 09 # opt=(modredundant,MaxCycle=1000) freq B3LYP/6-31G(d)
 30 28  0  0  1  0  0  0  0  0999 V2000
   -1.4659    0.3355    0.2730 O   0  0  0  0  0  0  0  0  0  0  0  0
    0.9467    0.4148   -0.3197 C   0  0  1  0  0  0  0  0  0  0  0  0
   -0.2594   -1.8068   -0.0619 C   0  0  2  0  0  0  0  0  0  0  0  0
    1.0906   -1.0668    0.0576 C   0  0  1  0  0  0  0  0  0  0  0  0
   -1.4152   -0.8943   -0.4939 C   0  0  1  0  0  0  0  0  0  0  0  0
   -0.2414    1.0646    0.4173 C   0  0  1  0  0  0  0  0  0  0  0  0
    1.3890   -1.1146    1.1157 H   0  0  0  0  0  0  0  0  0  0  0  0
    0.0154    1.0846    1.4877 H   0  0  0  0  0  0  0  0  0  0  0  0
    0.8073    0.4851   -1.4089 H   0  0  0  0  0  0  0  0  0  0  0  0
   -0.5209    2.4960   -0.0703 C   0  0  0  0  0  0  0  0  0  0  0  0
   -0.7335    2.4812   -1.1436 H   0  0  0  0  0  0  0  0  0  0  0  0
   -1.4056    2.8969    0.4426 H   0  0  0  0  0  0  0  0  0  0  0  0
   -0.1440   -2.5823   -0.8325 H   0  0  0  0  0  0  0  0  0  0  0  0
    0.6040    3.3713    0.0935 O   0  0  0  0  0  0  0  0  0  0  0  0
    0.6840    3.5831    1.0375 H   0  0  0  0  0  0  0  0  0  0  0  0
   -0.5565   -2.3724    1.2051 O   0  0  0  0  0  0  0  0  0  0  0  0
   -1.5041   -2.5941    1.1744 H   0  0  0  0  0  0  0  0  0  0  0  0
    2.0140   -1.7269   -0.7815 O   0  0  0  0  0  0  0  0  0  0  0  0
    2.9235   -1.4264   -0.5544 H   0  0  0  0  0  0  0  0  0  0  0  0
    2.1424    1.1056    0.0610 O   0  0  0  0  0  0  0  0  0  0  0  0
    1.9794    2.0559   -0.1055 H   0  0  0  0  0  0  0  0  0  0  0  0
   -1.3127   -0.6223   -1.5569 H   0  0  0  0  0  0  0  0  0  0  0  0
   -2.5960   -1.5816   -0.2608 O   0  0  0  0  0  0  0  0  0  0  0  0
   -3.3484   -0.9720   -0.4477 H   0  0  0  0  0  0  0  0  0  0  0  0
   -4.1926    0.6551   -0.2912 O   0  0  0  0  0  0  0  0  0  0  0  0
   -3.3125    0.9272    0.0395 H   0  0  0  0  0  0  0  0  0  0  0  0
   -4.7354    0.5719    0.5084 H   0  0  0  0  0  0  0  0  0  0  0  0
    4.3954   -0.4882   -0.0275 O   0  0  0  0  0  0  0  0  0  0  0  0
    3.7822    0.2775   -0.0127 H   0  0  0  0  0  0  0  0  0  0  0  0
    4.5554   -0.6853    0.9079 H   0  0  0  0  0  0  0  0  0  0  0  0
  1  6  1  0  0  0  0
  2  9  1  6  0  0  0
  2  4  1  0  0  0  0
  2 20  1  0  0  0  0
  2  6  1  0  0  0  0
  3 13  1  6  0  0  0
  3  4  1  0  0  0  0
  3 16  1  0  0  0  0
  4  7  1  1  0  0  0
  5 22  1  6  0  0  0
  5 23  1  0  0  0  0
  5  3  1  0  0  0  0
  5  1  1  0  0  0  0
  6  8  1  1  0  0  0
 10 14  1  0  0  0  0
 10  6  1  0  0  0  0
 10 12  1  0  0  0  0
 11 10  1  0  0  0  0
 14 15  1  0  0  0  0
 17 16  1  0  0  0  0
 18 19  1  0  0  0  0
 18  4  1  0  0  0  0
 21 20  1  0  0  0  0
 24 23  1  0  0  0  0
 25 26  1  0  0  0  0
 25 27  1  0  0  0  0
 28 29  1  0  0  0  0
 28 30  1  0  0  0  0
M  END
$$$$
