./opt_IRC/b3lyp/init_boats/4/glo_2w_alpha_boat4_b3lyp_631Gd_iopt.out
 OpenBabel01251716433D
Gaussian 09 # opt=(modredundant,MaxCycle=1000) freq B3LYP/6-31G(d)
 30 28  0  0  1  0  0  0  0  0999 V2000
   -0.6818    0.2894    0.3375 O   0  0  0  0  0  0  0  0  0  0  0  0
    1.6801    0.2319   -0.3575 C   0  0  1  0  0  0  0  0  0  0  0  0
    0.3945   -1.9200    0.0686 C   0  0  2  0  0  0  0  0  0  0  0  0
    1.7666   -1.2236    0.0968 C   0  0  1  0  0  0  0  0  0  0  0  0
   -0.7345   -0.9794   -0.3795 C   0  0  1  0  0  0  0  0  0  0  0  0
    0.5762    0.9779    0.4050 C   0  0  1  0  0  0  0  0  0  0  0  0
    2.1105   -1.2287    1.1414 H   0  0  0  0  0  0  0  0  0  0  0  0
    0.8794    1.0291    1.4625 H   0  0  0  0  0  0  0  0  0  0  0  0
    1.4506    0.2467   -1.4363 H   0  0  0  0  0  0  0  0  0  0  0  0
    0.3446    2.3973   -0.1348 C   0  0  0  0  0  0  0  0  0  0  0  0
    0.0762    2.3444   -1.1943 H   0  0  0  0  0  0  0  0  0  0  0  0
   -0.4915    2.8698    0.3978 H   0  0  0  0  0  0  0  0  0  0  0  0
    0.4444   -2.7424   -0.6611 H   0  0  0  0  0  0  0  0  0  0  0  0
    1.5272    3.2055   -0.0704 O   0  0  0  0  0  0  0  0  0  0  0  0
    1.6861    3.4284    0.8609 H   0  0  0  0  0  0  0  0  0  0  0  0
    0.1190   -2.4021    1.3730 O   0  0  0  0  0  0  0  0  0  0  0  0
   -0.8331   -2.6049    1.3787 H   0  0  0  0  0  0  0  0  0  0  0  0
    2.6688   -1.9377   -0.7366 O   0  0  0  0  0  0  0  0  0  0  0  0
    3.4902   -1.4176   -0.7411 H   0  0  0  0  0  0  0  0  0  0  0  0
    2.9556    0.8113   -0.1211 O   0  0  0  0  0  0  0  0  0  0  0  0
    2.8695    1.7612   -0.3296 H   0  0  0  0  0  0  0  0  0  0  0  0
   -0.6591   -0.7615   -1.4548 H   0  0  0  0  0  0  0  0  0  0  0  0
   -1.9362   -1.5784   -0.0670 O   0  0  0  0  0  0  0  0  0  0  0  0
   -2.6703   -1.1288   -0.5658 H   0  0  0  0  0  0  0  0  0  0  0  0
   -3.8390   -0.0757   -1.2500 O   0  0  0  0  0  0  0  0  0  0  0  0
   -3.7592    0.6302   -0.5586 H   0  0  0  0  0  0  0  0  0  0  0  0
   -4.7419   -0.4178   -1.1695 H   0  0  0  0  0  0  0  0  0  0  0  0
   -3.1046    1.5344    0.8180 O   0  0  0  0  0  0  0  0  0  0  0  0
   -2.2225    1.0989    0.7510 H   0  0  0  0  0  0  0  0  0  0  0  0
   -3.4656    1.2164    1.6597 H   0  0  0  0  0  0  0  0  0  0  0  0
  1  6  1  0  0  0  0
  2  9  1  6  0  0  0
  2 20  1  0  0  0  0
  2  4  1  0  0  0  0
  2  6  1  0  0  0  0
  3 13  1  6  0  0  0
  3  4  1  0  0  0  0
  3 16  1  0  0  0  0
  4  7  1  1  0  0  0
  5 22  1  6  0  0  0
  5 23  1  0  0  0  0
  5  3  1  0  0  0  0
  5  1  1  0  0  0  0
  6  8  1  1  0  0  0
 10 14  1  0  0  0  0
 10 12  1  0  0  0  0
 10  6  1  0  0  0  0
 11 10  1  0  0  0  0
 14 15  1  0  0  0  0
 16 17  1  0  0  0  0
 18  4  1  0  0  0  0
 19 18  1  0  0  0  0
 21 20  1  0  0  0  0
 24 23  1  0  0  0  0
 25 27  1  0  0  0  0
 25 26  1  0  0  0  0
 28 30  1  0  0  0  0
 29 28  1  0  0  0  0
M  END
$$$$
