./IRC/b3lyp/boats/4/glo_1w_alpha_ircr_boat4_B3LYP_631Gd.out
 OpenBabel01241715093D
Gaussian 09 # b3lyp/6-31g(d) irc=(calcfc,reverse)
 30 27  0  0  1  0  0  0  0  0999 V2000
   -1.2424    0.4762   -0.7005 O   0  0  0  0  0  0  0  0  0  0  0  0
    1.0414    0.3519   -0.1589 C   0  0  1  0  0  0  0  0  0  0  0  0
   -0.3880   -1.7279    0.4533 C   0  0  2  0  0  0  0  0  0  0  0  0
    1.0088   -1.1582    0.1877 C   0  0  1  0  0  0  0  0  0  0  0  0
   -1.5192   -1.3438   -0.4921 C   0  0  0  0  0  0  0  0  0  0  0  0
   -0.2716    1.0923    0.1346 C   0  0  1  0  0  0  0  0  0  0  0  0
    1.5547   -1.2675    1.1372 H   0  0  0  0  0  0  0  0  0  0  0  0
   -0.5328    0.9831    1.1958 H   0  0  0  0  0  0  0  0  0  0  0  0
    1.2089    0.4266   -1.2442 H   0  0  0  0  0  0  0  0  0  0  0  0
   -0.2364    2.5632   -0.2861 C   0  0  0  0  0  0  0  0  0  0  0  0
    0.0065    2.6261   -1.3505 H   0  0  0  0  0  0  0  0  0  0  0  0
   -1.2252    3.0226   -0.1411 H   0  0  0  0  0  0  0  0  0  0  0  0
   -0.2902   -2.8205    0.3275 H   0  0  0  0  0  0  0  0  0  0  0  0
    0.7762    3.3068    0.3964 O   0  0  0  0  0  0  0  0  0  0  0  0
    0.5233    3.3746    1.3315 H   0  0  0  0  0  0  0  0  0  0  0  0
   -0.7833   -1.4012    1.7737 O   0  0  0  0  0  0  0  0  0  0  0  0
   -1.7596   -1.4819    1.7371 H   0  0  0  0  0  0  0  0  0  0  0  0
    1.5889   -1.9370   -0.8396 O   0  0  0  0  0  0  0  0  0  0  0  0
    2.5326   -1.6607   -0.8986 H   0  0  0  0  0  0  0  0  0  0  0  0
    2.1367    0.9369    0.5591 O   0  0  0  0  0  0  0  0  0  0  0  0
    2.0667    1.9070    0.4463 H   0  0  0  0  0  0  0  0  0  0  0  0
   -1.3336   -1.5044   -1.5623 H   0  0  0  0  0  0  0  0  0  0  0  0
   -2.6785   -1.4657   -0.0090 O   0  0  0  0  0  0  0  0  0  0  0  0
   -3.6730    0.7157   -0.5507 O   0  0  0  0  0  0  0  0  0  0  0  0
   -3.5847   -0.2772   -0.4151 H   0  0  0  0  0  0  0  0  0  0  0  0
   -2.2029    0.8204   -0.5758 H   0  0  0  0  0  0  0  0  0  0  0  0
   -4.0581    1.0486    0.2746 H   0  0  0  0  0  0  0  0  0  0  0  0
    4.0830   -0.7193   -0.5312 O   0  0  0  0  0  0  0  0  0  0  0  0
    4.5435   -1.1726    0.1911 H   0  0  0  0  0  0  0  0  0  0  0  0
    3.6029    0.0186   -0.0926 H   0  0  0  0  0  0  0  0  0  0  0  0
  1 26  1  0  0  0  0
  1  6  1  0  0  0  0
  2  9  1  6  0  0  0
  2  6  1  0  0  0  0
  2  4  1  0  0  0  0
  2 20  1  0  0  0  0
  3 13  1  6  0  0  0
  3 16  1  0  0  0  0
  4  3  1  0  0  0  0
  4  7  1  1  0  0  0
  5 23  2  0  0  0  0
  5  3  1  0  0  0  0
  6  8  1  1  0  0  0
 10 12  1  0  0  0  0
 10  6  1  0  0  0  0
 10 14  1  0  0  0  0
 11 10  1  0  0  0  0
 14 15  1  0  0  0  0
 17 16  1  0  0  0  0
 18  4  1  0  0  0  0
 19 18  1  0  0  0  0
 21 20  1  0  0  0  0
 22  5  1  0  0  0  0
 24 25  1  0  0  0  0
 24 27  1  0  0  0  0
 28 30  1  0  0  0  0
 28 29  1  0  0  0  0
M  END
$$$$
