./IRC/b3lyp/boats/4/glo_1w_beta_ircf_boat4_B3LYP_631Gd.out
 OpenBabel01251716433D
Gaussian 09 # b3lyp/6-31g(d) irc=(calcfc,forward)
 30 28  0  0  1  0  0  0  0  0999 V2000
   -1.7065    0.2782    0.4480 O   0  0  0  0  0  0  0  0  0  0  0  0
    0.6576    0.4087   -0.1515 C   0  0  1  0  0  0  0  0  0  0  0  0
   -0.2549   -1.7976    0.8225 C   0  0  2  0  0  0  0  0  0  0  0  0
    0.9845   -1.0247    0.3235 C   0  0  1  0  0  0  0  0  0  0  0  0
   -1.5376   -1.3877    0.1179 C   0  0  2  0  0  0  0  0  0  0  0  0
   -0.5121    1.0382    0.6248 C   0  0  1  0  0  0  0  0  0  0  0  0
    1.6327   -0.9174    1.2078 H   0  0  0  0  0  0  0  0  0  0  0  0
   -0.2492    1.0459    1.6939 H   0  0  0  0  0  0  0  0  0  0  0  0
    0.3876    0.3513   -1.2162 H   0  0  0  0  0  0  0  0  0  0  0  0
   -2.4514   -1.6790    0.6550 H   0  0  0  0  0  0  0  0  0  0  0  0
   -0.8079    2.4923    0.1864 C   0  0  0  0  0  0  0  0  0  0  0  0
   -0.9983    2.5313   -0.8913 H   0  0  0  0  0  0  0  0  0  0  0  0
   -1.7077    2.8515    0.7021 H   0  0  0  0  0  0  0  0  0  0  0  0
   -0.0634   -2.8625    0.6264 H   0  0  0  0  0  0  0  0  0  0  0  0
   -1.5546   -1.6026   -1.1974 O   0  0  0  0  0  0  0  0  0  0  0  0
    0.2965    3.3862    0.4007 O   0  0  0  0  0  0  0  0  0  0  0  0
    0.4250    3.4769    1.3592 H   0  0  0  0  0  0  0  0  0  0  0  0
   -0.3707   -1.5301    2.2179 O   0  0  0  0  0  0  0  0  0  0  0  0
   -1.2058   -1.9085    2.5353 H   0  0  0  0  0  0  0  0  0  0  0  0
    1.5984   -1.7960   -0.6813 O   0  0  0  0  0  0  0  0  0  0  0  0
    2.4749   -1.3932   -0.8832 H   0  0  0  0  0  0  0  0  0  0  0  0
    1.8511    1.1891    0.0229 O   0  0  0  0  0  0  0  0  0  0  0  0
    1.6029    2.1319   -0.0637 H   0  0  0  0  0  0  0  0  0  0  0  0
   -2.9567    0.3169   -1.6461 O   0  0  0  0  0  0  0  0  0  0  0  0
   -2.4969    0.5844   -0.7925 H   0  0  0  0  0  0  0  0  0  0  0  0
   -2.2839   -1.0129   -1.5845 H   0  0  0  0  0  0  0  0  0  0  0  0
   -2.5537    0.8263   -2.3645 H   0  0  0  0  0  0  0  0  0  0  0  0
    3.9238   -0.2906   -1.0097 O   0  0  0  0  0  0  0  0  0  0  0  0
    4.4948   -0.4697   -0.2473 H   0  0  0  0  0  0  0  0  0  0  0  0
    3.3381    0.4397   -0.7084 H   0  0  0  0  0  0  0  0  0  0  0  0
  1  6  1  0  0  0  0
  2  9  1  6  0  0  0
  2 22  1  0  0  0  0
  2  4  1  0  0  0  0
  2  6  1  0  0  0  0
  3 14  1  6  0  0  0
  3 18  1  0  0  0  0
  4  3  1  0  0  0  0
  4  7  1  1  0  0  0
  5  1  1  0  0  0  0
  5 10  1  1  0  0  0
  5  3  1  0  0  0  0
  6  8  1  1  0  0  0
 11 16  1  0  0  0  0
 11  6  1  0  0  0  0
 11 13  1  0  0  0  0
 12 11  1  0  0  0  0
 15  5  1  0  0  0  0
 16 17  1  0  0  0  0
 18 19  1  0  0  0  0
 20  4  1  0  0  0  0
 21 20  1  0  0  0  0
 23 22  1  0  0  0  0
 24 25  1  0  0  0  0
 26 15  1  0  0  0  0
 27 24  1  0  0  0  0
 28 30  1  0  0  0  0
 28 29  1  0  0  0  0
M  END
$$$$
