./IRC/b3lyp/boats/4/glo_2w_alpha_ircf_boat4_B3LYP_631Gd.out
 OpenBabel01251716433D
Gaussian 09 # b3lyp/6-31g(d) irc=(calcfc,forward)
 30 28  0  0  1  0  0  0  0  0999 V2000
   -0.6434    0.3259    0.5433 O   0  0  0  0  0  0  0  0  0  0  0  0
    1.6459    0.2107   -0.2481 C   0  0  1  0  0  0  0  0  0  0  0  0
    0.2231   -1.9048   -0.2038 C   0  0  2  0  0  0  0  0  0  0  0  0
    1.5584   -1.2484    0.2046 C   0  0  1  0  0  0  0  0  0  0  0  0
   -0.8754   -0.8662   -0.4964 C   0  0  1  0  0  0  0  0  0  0  0  0
    0.5817    1.0641    0.4512 C   0  0  1  0  0  0  0  0  0  0  0  0
    1.6080   -1.2741    1.3038 H   0  0  0  0  0  0  0  0  0  0  0  0
    0.9319    1.2360    1.4800 H   0  0  0  0  0  0  0  0  0  0  0  0
    1.5002    0.2475   -1.3408 H   0  0  0  0  0  0  0  0  0  0  0  0
    0.3787    2.4209   -0.2477 C   0  0  0  0  0  0  0  0  0  0  0  0
    0.0450    2.2615   -1.2782 H   0  0  0  0  0  0  0  0  0  0  0  0
   -0.3916    3.0116    0.2644 H   0  0  0  0  0  0  0  0  0  0  0  0
    0.4079   -2.4541   -1.1425 H   0  0  0  0  0  0  0  0  0  0  0  0
    1.6142    3.1466   -0.3460 O   0  0  0  0  0  0  0  0  0  0  0  0
    1.8087    3.5168    0.5298 H   0  0  0  0  0  0  0  0  0  0  0  0
   -0.2033   -2.7810    0.8166 O   0  0  0  0  0  0  0  0  0  0  0  0
   -1.1758   -2.7927    0.7538 H   0  0  0  0  0  0  0  0  0  0  0  0
    2.6240   -1.9881   -0.3685 O   0  0  0  0  0  0  0  0  0  0  0  0
    3.4195   -1.4461   -0.2270 H   0  0  0  0  0  0  0  0  0  0  0  0
    2.9532    0.6726    0.0712 O   0  0  0  0  0  0  0  0  0  0  0  0
    2.9977    1.5847   -0.2698 H   0  0  0  0  0  0  0  0  0  0  0  0
   -0.7531   -0.3806   -1.4724 H   0  0  0  0  0  0  0  0  0  0  0  0
   -2.0980   -1.3726   -0.2881 O   0  0  0  0  0  0  0  0  0  0  0  0
   -3.8036    0.2739   -0.8814 O   0  0  0  0  0  0  0  0  0  0  0  0
   -2.8413   -0.7498   -0.6346 H   0  0  0  0  0  0  0  0  0  0  0  0
   -3.5160    0.9110   -0.1414 H   0  0  0  0  0  0  0  0  0  0  0  0
   -4.6907   -0.0505   -0.6685 H   0  0  0  0  0  0  0  0  0  0  0  0
   -2.7275    1.5830    0.8763 O   0  0  0  0  0  0  0  0  0  0  0  0
   -1.8495    1.0876    0.8017 H   0  0  0  0  0  0  0  0  0  0  0  0
   -3.0698    1.3571    1.7545 H   0  0  0  0  0  0  0  0  0  0  0  0
  2  9  1  6  0  0  0
  2 20  1  0  0  0  0
  2  4  1  0  0  0  0
  2  6  1  0  0  0  0
  3 13  1  6  0  0  0
  3  4  1  0  0  0  0
  3 16  1  0  0  0  0
  4  7  1  1  0  0  0
  5 22  1  6  0  0  0
  5 23  1  0  0  0  0
  5  3  1  0  0  0  0
  5  1  1  0  0  0  0
  6  1  1  0  0  0  0
  6  8  1  1  0  0  0
 10 12  1  0  0  0  0
 10  6  1  0  0  0  0
 11 10  1  0  0  0  0
 14 10  1  0  0  0  0
 14 15  1  0  0  0  0
 17 16  1  0  0  0  0
 18 19  1  0  0  0  0
 18  4  1  0  0  0  0
 21 20  1  0  0  0  0
 24 27  1  0  0  0  0
 24 26  1  0  0  0  0
 25 23  1  0  0  0  0
 28 30  1  0  0  0  0
 29 28  1  0  0  0  0
M  END
$$$$
