./opt_IRC/b3lyp/boats/3/glo_1w_alpha_ircf_boat3_B3LYP_631Gd_opt.out
 OpenBabel01251716433D
Gaussian 09 # b3lyp/6-31g(d) opt freq
 30 27  0  0  1  0  0  0  0  0999 V2000
   -0.3654   -0.3955    0.8111 C   0  0  2  0  0  0  0  0  0  0  0  0
    1.2539    1.2206   -0.5170 C   0  0  1  0  0  0  0  0  0  0  0  0
    0.1913   -1.6468   -1.2862 O   0  0  0  0  0  0  0  0  0  0  0  0
    2.4883    1.2180    0.3650 C   0  0  0  0  0  0  0  0  0  0  0  0
   -0.7376   -1.4813   -0.2268 C   0  0  2  0  0  0  0  0  0  0  0  0
   -0.0521    1.0355    0.3086 C   0  0  1  0  0  0  0  0  0  0  0  0
    0.0495    1.6535    1.2160 H   0  0  0  0  0  0  0  0  0  0  0  0
    1.3262    0.4448   -1.2877 H   0  0  0  0  0  0  0  0  0  0  0  0
   -0.8080   -2.4138    0.3660 H   0  0  0  0  0  0  0  0  0  0  0  0
   -1.2463   -0.2938    1.4586 H   0  0  0  0  0  0  0  0  0  0  0  0
   -2.0877   -1.2710   -0.9271 C   0  0  0  0  0  0  0  0  0  0  0  0
   -2.2636   -2.1227   -1.5956 H   0  0  0  0  0  0  0  0  0  0  0  0
   -2.0575   -0.3576   -1.5187 H   0  0  0  0  0  0  0  0  0  0  0  0
   -3.1913   -1.1179   -0.0183 O   0  0  0  0  0  0  0  0  0  0  0  0
   -3.2343   -1.9014    0.5522 H   0  0  0  0  0  0  0  0  0  0  0  0
    1.2456    2.5232   -1.0815 O   0  0  0  0  0  0  0  0  0  0  0  0
    0.2967    2.7088   -1.2301 H   0  0  0  0  0  0  0  0  0  0  0  0
   -1.0779    1.5705   -0.5189 O   0  0  0  0  0  0  0  0  0  0  0  0
   -1.8853    1.7234    0.0336 H   0  0  0  0  0  0  0  0  0  0  0  0
    0.6836   -0.8243    1.6753 O   0  0  0  0  0  0  0  0  0  0  0  0
    1.3350   -1.3465    1.1645 H   0  0  0  0  0  0  0  0  0  0  0  0
    2.5818    2.1264    0.9905 H   0  0  0  0  0  0  0  0  0  0  0  0
    3.3699    0.3757    0.3769 O   0  0  0  0  0  0  0  0  0  0  0  0
    2.5740   -2.1709   -0.0027 O   0  0  0  0  0  0  0  0  0  0  0  0
    3.0408   -1.3015   -0.0554 H   0  0  0  0  0  0  0  0  0  0  0  0
    1.0054   -2.0630   -0.9402 H   0  0  0  0  0  0  0  0  0  0  0  0
    3.1910   -2.7927    0.4104 H   0  0  0  0  0  0  0  0  0  0  0  0
   -3.3871    1.4811    0.9092 O   0  0  0  0  0  0  0  0  0  0  0  0
   -4.1255    1.9227    0.4633 H   0  0  0  0  0  0  0  0  0  0  0  0
   -3.4674    0.5319    0.6587 H   0  0  0  0  0  0  0  0  0  0  0  0
  1 10  1  1  0  0  0
  1 20  1  0  0  0  0
  2  8  1  6  0  0  0
  2  6  1  0  0  0  0
  2  4  1  0  0  0  0
  3 26  1  0  0  0  0
  3  5  1  0  0  0  0
  4 23  2  0  0  0  0
  4 22  1  0  0  0  0
  5  9  1  1  0  0  0
  5  1  1  0  0  0  0
  6  1  1  0  0  0  0
  6  7  1  1  0  0  0
 11  5  1  0  0  0  0
 11 14  1  0  0  0  0
 12 11  1  0  0  0  0
 13 11  1  0  0  0  0
 14 15  1  0  0  0  0
 16  2  1  0  0  0  0
 17 16  1  0  0  0  0
 18 19  1  0  0  0  0
 18  6  1  0  0  0  0
 21 20  1  0  0  0  0
 24 27  1  0  0  0  0
 25 24  1  0  0  0  0
 29 28  1  0  0  0  0
 30 28  1  0  0  0  0
M  END
$$$$
