./opt_IRC/b3lyp/init_boats/2/glo_2w_alpha_boat2_b3lyp_631Gd_iopt.out
 OpenBabel01251716433D
Gaussian 09 # opt=(modredundant,MaxCycle=1000) freq B3LYP/6-31G(d)
 30 28  0  0  1  0  0  0  0  0999 V2000
    0.2910    0.5359   -1.5039 H   0  0  0  0  0  0  0  0  0  0  0  0
    0.0561    0.9394   -0.5038 C   0  0  1  0  0  0  0  0  0  0  0  0
   -2.1142    0.3397    0.6900 C   0  0  2  0  0  0  0  0  0  0  0  0
   -0.1300   -1.2776    0.4950 C   0  0  2  0  0  0  0  0  0  0  0  0
   -1.6889   -1.1466    0.5920 C   0  0  2  0  0  0  0  0  0  0  0  0
    0.5069    0.0169    0.4767 O   0  0  0  0  0  0  0  0  0  0  0  0
   -1.4867    1.1480   -0.4528 C   0  0  2  0  0  0  0  0  0  0  0  0
   -3.2043    0.3708    0.5556 H   0  0  0  0  0  0  0  0  0  0  0  0
   -2.0017   -1.6379    1.5231 H   0  0  0  0  0  0  0  0  0  0  0  0
   -1.7170    2.2093   -0.2752 H   0  0  0  0  0  0  0  0  0  0  0  0
    0.8280    2.2409   -0.3000 C   0  0  0  0  0  0  0  0  0  0  0  0
    0.7235    2.5674    0.7382 H   0  0  0  0  0  0  0  0  0  0  0  0
    0.3967    3.0193   -0.9486 H   0  0  0  0  0  0  0  0  0  0  0  0
    2.2310    2.1215   -0.5412 O   0  0  0  0  0  0  0  0  0  0  0  0
    2.3524    1.7993   -1.4490 H   0  0  0  0  0  0  0  0  0  0  0  0
   -2.3931   -1.8145   -0.4245 O   0  0  0  0  0  0  0  0  0  0  0  0
   -2.0925   -1.4449   -1.2715 H   0  0  0  0  0  0  0  0  0  0  0  0
   -1.7204    0.9755    1.8984 O   0  0  0  0  0  0  0  0  0  0  0  0
   -2.1674    0.5222    2.6297 H   0  0  0  0  0  0  0  0  0  0  0  0
   -2.1177    0.7072   -1.6588 O   0  0  0  0  0  0  0  0  0  0  0  0
   -1.7638    1.2285   -2.3955 H   0  0  0  0  0  0  0  0  0  0  0  0
    0.2842   -1.7198    1.4106 H   0  0  0  0  0  0  0  0  0  0  0  0
    0.1894   -2.0007   -0.6385 O   0  0  0  0  0  0  0  0  0  0  0  0
    1.1799   -2.0793   -0.6733 H   0  0  0  0  0  0  0  0  0  0  0  0
    3.2916    0.8619    0.6031 H   0  0  0  0  0  0  0  0  0  0  0  0
    3.3328   -2.7920   -0.2366 H   0  0  0  0  0  0  0  0  0  0  0  0
    2.9267   -2.0074   -0.6333 O   0  0  0  0  0  0  0  0  0  0  0  0
    3.1681   -1.2606   -0.0224 H   0  0  0  0  0  0  0  0  0  0  0  0
    3.2362    0.0451    1.1365 O   0  0  0  0  0  0  0  0  0  0  0  0
    2.2683    0.0091    1.2708 H   0  0  0  0  0  0  0  0  0  0  0  0
  2  1  1  6  0  0  0
  2  7  1  0  0  0  0
  2 11  1  0  0  0  0
  2  6  1  0  0  0  0
  3  8  1  6  0  0  0
  3 18  1  0  0  0  0
  4  5  1  0  0  0  0
  4 22  1  1  0  0  0
  5  3  1  0  0  0  0
  5  9  1  1  0  0  0
  6  4  1  0  0  0  0
  7 10  1  1  0  0  0
  7  3  1  0  0  0  0
 11 12  1  0  0  0  0
 13 11  1  0  0  0  0
 14 11  1  0  0  0  0
 15 14  1  0  0  0  0
 16  5  1  0  0  0  0
 17 16  1  0  0  0  0
 18 19  1  0  0  0  0
 20  7  1  0  0  0  0
 21 20  1  0  0  0  0
 23  4  1  0  0  0  0
 24 23  1  0  0  0  0
 25 29  1  0  0  0  0
 27 26  1  0  0  0  0
 27 28  1  0  0  0  0
 29 30  1  0  0  0  0
M  END
$$$$
