./opt_IRC/b3lyp/boats/2/glo_2w_alpha_ircr_boat2_B3LYP_631Gd_opt.out
 OpenBabel01241715093D
Gaussian 09 # b3lyp/6-31g(d) opt freq
 30 28  0  0  1  0  0  0  0  0999 V2000
    0.0604   -1.3419    0.3263 C   0  0  2  0  0  0  0  0  0  0  0  0
    0.4172    0.0328    0.6196 O   0  0  0  0  0  0  0  0  0  0  0  0
    3.0633    1.2913    0.4021 H   0  0  0  0  0  0  0  0  0  0  0  0
    3.7348   -2.3824    0.0671 H   0  0  0  0  0  0  0  0  0  0  0  0
    3.3105   -1.7003   -0.4740 O   0  0  0  0  0  0  0  0  0  0  0  0
    3.4242   -0.8509    0.0376 H   0  0  0  0  0  0  0  0  0  0  0  0
    3.1926    0.5367    1.0126 O   0  0  0  0  0  0  0  0  0  0  0  0
    2.2607    0.3256    1.2160 H   0  0  0  0  0  0  0  0  0  0  0  0
   -1.7403    1.0277    0.0074 C   0  0  1  0  0  0  0  0  0  0  0  0
   -0.2145    0.9659   -0.2836 C   0  0  1  0  0  0  0  0  0  0  0  0
   -1.9694    1.8723    0.6684 H   0  0  0  0  0  0  0  0  0  0  0  0
   -0.0808    0.5949   -1.3075 H   0  0  0  0  0  0  0  0  0  0  0  0
   -2.4598    1.2508   -1.1925 O   0  0  0  0  0  0  0  0  0  0  0  0
   -2.4172    0.3992   -1.6690 H   0  0  0  0  0  0  0  0  0  0  0  0
    0.4538    2.3262   -0.1573 C   0  0  0  0  0  0  0  0  0  0  0  0
    1.8034    2.3655   -0.6316 O   0  0  0  0  0  0  0  0  0  0  0  0
    0.5021    2.6263    0.8943 H   0  0  0  0  0  0  0  0  0  0  0  0
   -0.1655    3.0588   -0.6928 H   0  0  0  0  0  0  0  0  0  0  0  0
    1.7957    2.1646   -1.5811 H   0  0  0  0  0  0  0  0  0  0  0  0
    0.3812   -1.8738    1.2297 H   0  0  0  0  0  0  0  0  0  0  0  0
    0.6760   -1.8179   -0.8155 O   0  0  0  0  0  0  0  0  0  0  0  0
    1.6709   -1.8479   -0.6937 H   0  0  0  0  0  0  0  0  0  0  0  0
   -1.4764   -1.4746    0.1208 C   0  0  1  0  0  0  0  0  0  0  0  0
   -1.8170   -2.3993    0.6060 H   0  0  0  0  0  0  0  0  0  0  0  0
   -2.1845   -0.2608    0.7417 C   0  0  1  0  0  0  0  0  0  0  0  0
   -3.2659   -0.3616    0.6145 H   0  0  0  0  0  0  0  0  0  0  0  0
   -1.8024   -1.4975   -1.2685 O   0  0  0  0  0  0  0  0  0  0  0  0
   -1.0181   -1.8766   -1.7111 H   0  0  0  0  0  0  0  0  0  0  0  0
   -1.9478   -0.1980    2.1424 O   0  0  0  0  0  0  0  0  0  0  0  0
   -1.0083    0.0284    2.2478 H   0  0  0  0  0  0  0  0  0  0  0  0
  1  2  1  0  0  0  0
  1 20  1  1  0  0  0
  3  7  1  0  0  0  0
  5  6  1  0  0  0  0
  5  4  1  0  0  0  0
  7  8  1  0  0  0  0
  9 11  1  1  0  0  0
  9 25  1  0  0  0  0
 10 12  1  6  0  0  0
 10 15  1  0  0  0  0
 10  9  1  0  0  0  0
 10  2  1  0  0  0  0
 13  9  1  0  0  0  0
 14 13  1  0  0  0  0
 15 17  1  0  0  0  0
 16 15  1  0  0  0  0
 18 15  1  0  0  0  0
 19 16  1  0  0  0  0
 21 22  1  0  0  0  0
 21  1  1  0  0  0  0
 23  1  1  0  0  0  0
 23 24  1  1  0  0  0
 23 25  1  0  0  0  0
 25 26  1  6  0  0  0
 25 29  1  0  0  0  0
 27 23  1  0  0  0  0
 28 27  1  0  0  0  0
 29 30  1  0  0  0  0
M  END
$$$$
