./opt_IRC/b3lyp/boats/2/glo_2w_beta_ircf_boat2_B3LYP_631Gd_opt.out
 OpenBabel01241715093D
Gaussian 09 # b3lyp/6-31g(d) opt freq
 30 27  0  0  1  0  0  0  0  0999 V2000
    1.2393    0.9014    1.4417 C   0  0  0  0  0  0  0  0  0  0  0  0
   -0.5045   -0.8592    0.9425 O   0  0  0  0  0  0  0  0  0  0  0  0
    1.0987   -3.2832   -1.1891 H   0  0  0  0  0  0  0  0  0  0  0  0
    3.1602   -0.7429   -0.9921 H   0  0  0  0  0  0  0  0  0  0  0  0
    3.4808   -1.3873   -0.3324 O   0  0  0  0  0  0  0  0  0  0  0  0
    2.0353   -2.3384   -0.3459 H   0  0  0  0  0  0  0  0  0  0  0  0
    1.0808   -2.5727   -0.5311 O   0  0  0  0  0  0  0  0  0  0  0  0
   -0.2114   -1.6672    0.4721 H   0  0  0  0  0  0  0  0  0  0  0  0
   -1.0987    0.5634   -1.0227 C   0  0  1  0  0  0  0  0  0  0  0  0
   -1.5544   -0.2011    0.2510 C   0  0  1  0  0  0  0  0  0  0  0  0
   -1.1957   -0.0942   -1.8974 H   0  0  0  0  0  0  0  0  0  0  0  0
   -1.9141    0.5613    0.9557 H   0  0  0  0  0  0  0  0  0  0  0  0
   -1.9901    1.6455   -1.2711 O   0  0  0  0  0  0  0  0  0  0  0  0
   -1.7630    2.3301   -0.6170 H   0  0  0  0  0  0  0  0  0  0  0  0
   -2.7155   -1.1399   -0.0929 C   0  0  0  0  0  0  0  0  0  0  0  0
   -3.2596   -1.8185    1.0253 O   0  0  0  0  0  0  0  0  0  0  0  0
   -2.3536   -1.9286   -0.7652 H   0  0  0  0  0  0  0  0  0  0  0  0
   -3.4755   -0.5614   -0.6412 H   0  0  0  0  0  0  0  0  0  0  0  0
   -3.5638   -1.1500    1.6588 H   0  0  0  0  0  0  0  0  0  0  0  0
    3.3600   -0.8770    0.4929 H   0  0  0  0  0  0  0  0  0  0  0  0
    0.8889    1.7638    0.2255 C   0  0  1  0  0  0  0  0  0  0  0  0
    1.8207    2.2723   -0.0617 H   0  0  0  0  0  0  0  0  0  0  0  0
    0.3763    1.0411   -1.0555 C   0  0  1  0  0  0  0  0  0  0  0  0
    0.3884    1.8129   -1.8337 H   0  0  0  0  0  0  0  0  0  0  0  0
   -0.1273    2.7117    0.5750 O   0  0  0  0  0  0  0  0  0  0  0  0
    0.2486    3.3915    1.1540 H   0  0  0  0  0  0  0  0  0  0  0  0
    1.2791    0.0372   -1.4784 O   0  0  0  0  0  0  0  0  0  0  0  0
    0.9907   -0.8420   -1.1520 H   0  0  0  0  0  0  0  0  0  0  0  0
    2.2974    0.3170    1.5717 O   0  0  0  0  0  0  0  0  0  0  0  0
    0.5064    0.9545    2.2675 H   0  0  0  0  0  0  0  0  0  0  0  0
  1 29  2  0  0  0  0
  1 30  1  0  0  0  0
  3  7  1  0  0  0  0
  4  5  1  0  0  0  0
  5 20  1  0  0  0  0
  7  6  1  0  0  0  0
  8  2  1  0  0  0  0
  9 11  1  6  0  0  0
  9 10  1  0  0  0  0
 10  2  1  0  0  0  0
 10 12  1  1  0  0  0
 13  9  1  0  0  0  0
 13 14  1  0  0  0  0
 15 10  1  0  0  0  0
 15 16  1  0  0  0  0
 16 19  1  0  0  0  0
 17 15  1  0  0  0  0
 18 15  1  0  0  0  0
 21 22  1  6  0  0  0
 21 25  1  0  0  0  0
 21  1  1  0  0  0  0
 23 24  1  6  0  0  0
 23  9  1  0  0  0  0
 23 21  1  0  0  0  0
 25 26  1  0  0  0  0
 27 28  1  0  0  0  0
 27 23  1  0  0  0  0
M  END
$$$$
