./opt_IRC/b3lyp/boats/2/glo_1w_alpha_ircr_boat2_B3LYP_631Gd_opt.out
 OpenBabel01241715093D
Gaussian 09 # b3lyp/6-31g(d) opt freq
 30 27  0  0  1  0  0  0  0  0999 V2000
   -1.7120   -1.6085   -0.7261 C   0  0  0  0  0  0  0  0  0  0  0  0
   -1.0436    1.1426   -0.8845 O   0  0  0  0  0  0  0  0  0  0  0  0
   -4.3624    1.1971    0.7399 H   0  0  0  0  0  0  0  0  0  0  0  0
   -3.5327    1.0328    0.2677 O   0  0  0  0  0  0  0  0  0  0  0  0
   -1.8547    1.5187   -0.4951 H   0  0  0  0  0  0  0  0  0  0  0  0
    0.9695    0.1583   -0.2146 C   0  0  1  0  0  0  0  0  0  0  0  0
    0.0718    1.3946   -0.0348 C   0  0  1  0  0  0  0  0  0  0  0  0
    1.0493   -0.0300   -1.2897 H   0  0  0  0  0  0  0  0  0  0  0  0
   -0.2338    1.4858    1.0165 H   0  0  0  0  0  0  0  0  0  0  0  0
    2.3371    0.4417    0.2059 O   0  0  0  0  0  0  0  0  0  0  0  0
    2.3159    0.5584    1.1722 H   0  0  0  0  0  0  0  0  0  0  0  0
    0.7359    2.7118   -0.4760 C   0  0  0  0  0  0  0  0  0  0  0  0
    1.7886    3.1450    0.3717 O   0  0  0  0  0  0  0  0  0  0  0  0
   -0.0302    3.4941   -0.4499 H   0  0  0  0  0  0  0  0  0  0  0  0
    1.0631    2.6116   -1.5229 H   0  0  0  0  0  0  0  0  0  0  0  0
    2.5160    2.5230    0.2115 H   0  0  0  0  0  0  0  0  0  0  0  0
   -1.1148   -2.1274   -1.4975 H   0  0  0  0  0  0  0  0  0  0  0  0
   -2.8726   -1.3027   -0.9453 O   0  0  0  0  0  0  0  0  0  0  0  0
   -3.6446    0.1923   -0.2313 H   0  0  0  0  0  0  0  0  0  0  0  0
    3.8179   -1.8805   -0.1320 O   0  0  0  0  0  0  0  0  0  0  0  0
    4.1159   -2.0344   -1.0417 H   0  0  0  0  0  0  0  0  0  0  0  0
    3.5549   -0.9359   -0.1073 H   0  0  0  0  0  0  0  0  0  0  0  0
    0.5185   -1.1539    0.4771 C   0  0  1  0  0  0  0  0  0  0  0  0
    0.8580   -1.0866    1.5269 H   0  0  0  0  0  0  0  0  0  0  0  0
   -1.0006   -1.4571    0.6020 C   0  0  1  0  0  0  0  0  0  0  0  0
   -0.9940   -2.4968    0.9801 H   0  0  0  0  0  0  0  0  0  0  0  0
   -1.6293   -0.6500    1.5598 O   0  0  0  0  0  0  0  0  0  0  0  0
   -2.2645   -0.0377    1.1366 H   0  0  0  0  0  0  0  0  0  0  0  0
    1.0691   -2.2835   -0.1702 O   0  0  0  0  0  0  0  0  0  0  0  0
    2.0521   -2.2655   -0.0976 H   0  0  0  0  0  0  0  0  0  0  0  0
  1 25  1  0  0  0  0
  2  5  1  0  0  0  0
  2  7  1  0  0  0  0
  4  3  1  0  0  0  0
  6  8  1  6  0  0  0
  6  7  1  0  0  0  0
  6 10  1  0  0  0  0
  6 23  1  0  0  0  0
  7  9  1  1  0  0  0
 10 11  1  0  0  0  0
 12 14  1  0  0  0  0
 12  7  1  0  0  0  0
 12 13  1  0  0  0  0
 15 12  1  0  0  0  0
 16 13  1  0  0  0  0
 17  1  1  0  0  0  0
 18  1  2  0  0  0  0
 19  4  1  0  0  0  0
 20 22  1  0  0  0  0
 21 20  1  0  0  0  0
 23 25  1  0  0  0  0
 23 24  1  1  0  0  0
 25 26  1  1  0  0  0
 25 27  1  0  0  0  0
 28 27  1  0  0  0  0
 29 30  1  0  0  0  0
 29 23  1  0  0  0  0
M  END
$$$$
