./OPT_Molecules/boats/boat2_alpha_optfreq_B3LYP_631Gd.out
 OpenBabel01251716433D
Gaussian 09 # opt=(MaxCycle=1000) freq B3LYP/6-31G(d)
 24 24  0  0  1  0  0  0  0  0999 V2000
    0.6927    0.8662    0.9855 H   0  0  0  0  0  0  0  0  0  0  0  0
    0.8255    0.5651   -0.0627 C   0  0  1  0  0  0  0  0  0  0  0  0
   -0.7627   -1.4121   -0.3307 C   0  0  2  0  0  0  0  0  0  0  0  0
   -1.4862    0.9944   -0.3782 C   0  0  2  0  0  0  0  0  0  0  0  0
   -1.6887   -0.3768    0.3269 C   0  0  2  0  0  0  0  0  0  0  0  0
   -0.1613    1.1839   -0.8729 O   0  0  0  0  0  0  0  0  0  0  0  0
    0.7016   -0.9772   -0.1377 C   0  0  2  0  0  0  0  0  0  0  0  0
   -0.8850   -2.3772    0.1816 H   0  0  0  0  0  0  0  0  0  0  0  0
   -2.7417   -0.6560    0.1819 H   0  0  0  0  0  0  0  0  0  0  0  0
    1.2786   -1.3665   -0.9875 H   0  0  0  0  0  0  0  0  0  0  0  0
    2.1919    1.0445   -0.5275 C   0  0  0  0  0  0  0  0  0  0  0  0
    2.2659    2.1355   -0.4233 H   0  0  0  0  0  0  0  0  0  0  0  0
    2.3316    0.7842   -1.5865 H   0  0  0  0  0  0  0  0  0  0  0  0
    3.1456    0.3743    0.3063 O   0  0  0  0  0  0  0  0  0  0  0  0
    4.0324    0.5192   -0.0537 H   0  0  0  0  0  0  0  0  0  0  0  0
   -1.4638   -0.3447    1.7255 O   0  0  0  0  0  0  0  0  0  0  0  0
   -0.5829   -0.7219    1.9058 H   0  0  0  0  0  0  0  0  0  0  0  0
   -0.9983   -1.5393   -1.7294 O   0  0  0  0  0  0  0  0  0  0  0  0
   -1.8864   -1.9123   -1.8431 H   0  0  0  0  0  0  0  0  0  0  0  0
    1.1538   -1.5533    1.0916 O   0  0  0  0  0  0  0  0  0  0  0  0
    2.0479   -1.1894    1.2316 H   0  0  0  0  0  0  0  0  0  0  0  0
   -2.1011    1.0212   -1.2869 H   0  0  0  0  0  0  0  0  0  0  0  0
   -1.8497    2.0069    0.5182 O   0  0  0  0  0  0  0  0  0  0  0  0
   -1.7506    2.8461    0.0402 H   0  0  0  0  0  0  0  0  0  0  0  0
  2  1  1  1  0  0  0
  3  7  1  0  0  0  0
  3  8  1  1  0  0  0
  3  5  1  0  0  0  0
  4 22  1  6  0  0  0
  4  5  1  0  0  0  0
  4 23  1  0  0  0  0
  5  9  1  6  0  0  0
  5 16  1  0  0  0  0
  6  4  1  0  0  0  0
  6  2  1  0  0  0  0
  7 10  1  6  0  0  0
  7  2  1  0  0  0  0
  7 20  1  0  0  0  0
 11 12  1  0  0  0  0
 11  2  1  0  0  0  0
 11 14  1  0  0  0  0
 13 11  1  0  0  0  0
 15 14  1  0  0  0  0
 16 17  1  0  0  0  0
 18  3  1  0  0  0  0
 19 18  1  0  0  0  0
 20 21  1  0  0  0  0
 24 23  1  0  0  0  0
M  END
$$$$
