./OPT_Molecules/boats/boat6_beta_optfreq_B3LYP_631Gd.out
 OpenBabel01251716433D
Gaussian 09 # opt=maxcycle=1000 freq b3lyp/6-31g(d)
 24 24  0  0  1  0  0  0  0  0999 V2000
   -0.9851    0.8110    0.4337 C   0  0  2  0  0  0  0  0  0  0  0  0
    1.4796    0.3765    0.1417 C   0  0  1  0  0  0  0  0  0  0  0  0
    0.3402    1.3347   -0.1883 C   0  0  2  0  0  0  0  0  0  0  0  0
    1.1268   -1.0482   -0.2716 C   0  0  2  0  0  0  0  0  0  0  0  0
    0.9673   -1.0733   -1.3607 H   0  0  0  0  0  0  0  0  0  0  0  0
    1.6395    0.3952    1.2293 H   0  0  0  0  0  0  0  0  0  0  0  0
   -1.2964    1.5081    1.2170 H   0  0  0  0  0  0  0  0  0  0  0  0
    0.2554    1.3877   -1.2852 H   0  0  0  0  0  0  0  0  0  0  0  0
   -0.1791   -1.4783    0.4286 C   0  0  1  0  0  0  0  0  0  0  0  0
    0.0635   -2.2145    1.2039 H   0  0  0  0  0  0  0  0  0  0  0  0
   -0.7873   -0.4168    1.1432 O   0  0  0  0  0  0  0  0  0  0  0  0
   -2.0914    0.7222   -0.6256 C   0  0  0  0  0  0  0  0  0  0  0  0
   -2.3348    1.7523   -0.9397 H   0  0  0  0  0  0  0  0  0  0  0  0
   -1.7273    0.1758   -1.5048 H   0  0  0  0  0  0  0  0  0  0  0  0
   -3.2215    0.0723   -0.0570 O   0  0  0  0  0  0  0  0  0  0  0  0
   -3.9195    0.0571   -0.7295 H   0  0  0  0  0  0  0  0  0  0  0  0
   -1.0550   -2.0145   -0.5394 O   0  0  0  0  0  0  0  0  0  0  0  0
   -1.9402   -1.9947   -0.1334 H   0  0  0  0  0  0  0  0  0  0  0  0
    2.1574   -1.9478    0.1036 O   0  0  0  0  0  0  0  0  0  0  0  0
    2.9839   -1.5519   -0.2209 H   0  0  0  0  0  0  0  0  0  0  0  0
    2.6736    0.7336   -0.5443 O   0  0  0  0  0  0  0  0  0  0  0  0
    2.8632    1.6525   -0.2929 H   0  0  0  0  0  0  0  0  0  0  0  0
    0.7436    2.6109    0.3208 O   0  0  0  0  0  0  0  0  0  0  0  0
    0.2118    3.2969   -0.1098 H   0  0  0  0  0  0  0  0  0  0  0  0
  1 11  1  0  0  0  0
  1  7  1  1  0  0  0
  2  6  1  1  0  0  0
  3  8  1  6  0  0  0
  3  2  1  0  0  0  0
  3 23  1  0  0  0  0
  3  1  1  0  0  0  0
  4  5  1  6  0  0  0
  4 19  1  0  0  0  0
  4  2  1  0  0  0  0
  4  9  1  0  0  0  0
  9 11  1  0  0  0  0
  9 10  1  1  0  0  0
 12 15  1  0  0  0  0
 12  1  1  0  0  0  0
 13 12  1  0  0  0  0
 14 12  1  0  0  0  0
 16 15  1  0  0  0  0
 17 18  1  0  0  0  0
 17  9  1  0  0  0  0
 20 19  1  0  0  0  0
 21 22  1  0  0  0  0
 21  2  1  0  0  0  0
 24 23  1  0  0  0  0
M  END
$$$$
