./opt_IRC/b3lyp/boats/1/glo_2w_alpha_ircr_boat1_B3LYP_631Gd_opt.out
 OpenBabel01241715093D
Gaussian 09 # b3lyp/6-31g(d) opt freq
 30 27  0  0  1  0  0  0  0  0999 V2000
   -1.6409   -0.8862    1.1895 H   0  0  0  0  0  0  0  0  0  0  0  0
   -1.5846   -0.7467    0.1004 C   0  0  1  0  0  0  0  0  0  0  0  0
    0.1458    1.1092    0.3253 C   0  0  2  0  0  0  0  0  0  0  0  0
    1.3796   -0.1028   -1.6338 C   0  0  0  0  0  0  0  0  0  0  0  0
    1.2245    1.1463   -0.7795 C   0  0  2  0  0  0  0  0  0  0  0  0
   -0.5764   -1.5627   -0.4667 O   0  0  0  0  0  0  0  0  0  0  0  0
   -1.2877    0.7494   -0.1409 C   0  0  2  0  0  0  0  0  0  0  0  0
    0.9140    1.9397   -1.4831 H   0  0  0  0  0  0  0  0  0  0  0  0
   -1.4039    0.9784   -1.2153 H   0  0  0  0  0  0  0  0  0  0  0  0
   -2.9098   -1.1860   -0.5243 C   0  0  0  0  0  0  0  0  0  0  0  0
   -3.0811   -2.2449   -0.2915 H   0  0  0  0  0  0  0  0  0  0  0  0
   -2.8396   -1.0819   -1.6168 H   0  0  0  0  0  0  0  0  0  0  0  0
    0.4669    0.3868    1.0892 H   0  0  0  0  0  0  0  0  0  0  0  0
   -3.9648   -0.3674    0.0045 O   0  0  0  0  0  0  0  0  0  0  0  0
   -4.7690   -0.5177   -0.5134 H   0  0  0  0  0  0  0  0  0  0  0  0
    2.4672    1.4917   -0.1806 O   0  0  0  0  0  0  0  0  0  0  0  0
    2.2576    2.2575    0.3852 H   0  0  0  0  0  0  0  0  0  0  0  0
    0.1958    2.4231    0.8725 O   0  0  0  0  0  0  0  0  0  0  0  0
   -0.7036    2.6085    1.2025 H   0  0  0  0  0  0  0  0  0  0  0  0
   -2.1689    1.5668    0.6239 O   0  0  0  0  0  0  0  0  0  0  0  0
   -3.0642    1.1890    0.5158 H   0  0  0  0  0  0  0  0  0  0  0  0
    0.5548   -0.2629   -2.3489 H   0  0  0  0  0  0  0  0  0  0  0  0
    2.3482   -0.8354   -1.6337 O   0  0  0  0  0  0  0  0  0  0  0  0
    1.0271   -2.0719    1.6322 O   0  0  0  0  0  0  0  0  0  0  0  0
    1.1924   -2.9871    1.9019 H   0  0  0  0  0  0  0  0  0  0  0  0
    1.9294   -1.6842    1.4472 H   0  0  0  0  0  0  0  0  0  0  0  0
    0.0263   -1.8616    0.2652 H   0  0  0  0  0  0  0  0  0  0  0  0
    3.3928   -0.9564    0.9569 O   0  0  0  0  0  0  0  0  0  0  0  0
    3.3744   -1.1569    0.0004 H   0  0  0  0  0  0  0  0  0  0  0  0
    3.2122    0.0041    0.9181 H   0  0  0  0  0  0  0  0  0  0  0  0
  2  1  1  1  0  0  0
  3 18  1  0  0  0  0
  3 13  1  1  0  0  0
  4 23  2  0  0  0  0
  4  5  1  0  0  0  0
  5  8  1  6  0  0  0
  5 16  1  0  0  0  0
  5  3  1  0  0  0  0
  6  2  1  0  0  0  0
  6 27  1  0  0  0  0
  7  9  1  6  0  0  0
  7  2  1  0  0  0  0
  7  3  1  0  0  0  0
  7 20  1  0  0  0  0
 10 11  1  0  0  0  0
 10 14  1  0  0  0  0
 10  2  1  0  0  0  0
 12 10  1  0  0  0  0
 15 14  1  0  0  0  0
 16 17  1  0  0  0  0
 18 19  1  0  0  0  0
 21 20  1  0  0  0  0
 22  4  1  0  0  0  0
 24 25  1  0  0  0  0
 26 24  1  0  0  0  0
 29 28  1  0  0  0  0
 30 28  1  0  0  0  0
M  END
$$$$
