./opt_IRC/b3lyp/boats/1/glo_1w_alpha_ircf_boat1_B3LYP_631Gd_opt.out
 OpenBabel01251716433D
Gaussian 09 # b3lyp/6-31g(d) opt freq
 30 28  0  0  1  0  0  0  0  0999 V2000
   -0.3185    1.2424    1.1191 H   0  0  0  0  0  0  0  0  0  0  0  0
   -0.0965    1.1770    0.0445 C   0  0  1  0  0  0  0  0  0  0  0  0
    0.7499   -1.2323    0.2739 C   0  0  2  0  0  0  0  0  0  0  0  0
   -1.3738   -0.6743   -0.9723 C   0  0  2  0  0  0  0  0  0  0  0  0
   -0.7659   -1.4969    0.1686 C   0  0  2  0  0  0  0  0  0  0  0  0
   -1.2556    0.7420   -0.6734 O   0  0  0  0  0  0  0  0  0  0  0  0
    1.0920    0.2179   -0.1426 C   0  0  2  0  0  0  0  0  0  0  0  0
   -0.9130   -2.5579   -0.0630 H   0  0  0  0  0  0  0  0  0  0  0  0
    1.3556    0.1960   -1.2119 H   0  0  0  0  0  0  0  0  0  0  0  0
    0.1844    2.5785   -0.5033 C   0  0  0  0  0  0  0  0  0  0  0  0
   -0.7175    3.1944   -0.3914 H   0  0  0  0  0  0  0  0  0  0  0  0
    0.4163    2.4994   -1.5746 H   0  0  0  0  0  0  0  0  0  0  0  0
    1.0394   -1.3320    1.3346 H   0  0  0  0  0  0  0  0  0  0  0  0
    1.2831    3.1462    0.2253 O   0  0  0  0  0  0  0  0  0  0  0  0
    1.5417    3.9760   -0.2025 H   0  0  0  0  0  0  0  0  0  0  0  0
   -1.4382   -1.1419    1.3881 O   0  0  0  0  0  0  0  0  0  0  0  0
   -1.1997   -1.7944    2.0638 H   0  0  0  0  0  0  0  0  0  0  0  0
    1.3955   -2.1873   -0.5378 O   0  0  0  0  0  0  0  0  0  0  0  0
    2.3674   -2.0291   -0.4706 H   0  0  0  0  0  0  0  0  0  0  0  0
    2.2161    0.6499    0.6352 O   0  0  0  0  0  0  0  0  0  0  0  0
    2.2806    1.6221    0.5312 H   0  0  0  0  0  0  0  0  0  0  0  0
   -0.7994   -0.9027   -1.8793 H   0  0  0  0  0  0  0  0  0  0  0  0
   -2.6904   -0.9463   -1.2639 O   0  0  0  0  0  0  0  0  0  0  0  0
   -3.7689    0.3587    0.9309 O   0  0  0  0  0  0  0  0  0  0  0  0
   -3.2488   -0.6405   -0.5084 H   0  0  0  0  0  0  0  0  0  0  0  0
   -3.2631    1.0790    0.5175 H   0  0  0  0  0  0  0  0  0  0  0  0
   -3.0725   -0.1290    1.4132 H   0  0  0  0  0  0  0  0  0  0  0  0
    3.9937   -1.3241   -0.0638 O   0  0  0  0  0  0  0  0  0  0  0  0
    3.5840   -0.4814    0.2380 H   0  0  0  0  0  0  0  0  0  0  0  0
    4.3241   -1.7398    0.7469 H   0  0  0  0  0  0  0  0  0  0  0  0
  2  1  1  1  0  0  0
  3 13  1  1  0  0  0
  4 22  1  6  0  0  0
  4  6  1  0  0  0  0
  4  5  1  0  0  0  0
  5  8  1  6  0  0  0
  5  3  1  0  0  0  0
  5 16  1  0  0  0  0
  6  2  1  0  0  0  0
  7  9  1  6  0  0  0
  7  2  1  0  0  0  0
  7  3  1  0  0  0  0
  7 20  1  0  0  0  0
 10 11  1  0  0  0  0
 10  2  1  0  0  0  0
 10 14  1  0  0  0  0
 12 10  1  0  0  0  0
 15 14  1  0  0  0  0
 16 17  1  0  0  0  0
 18 19  1  0  0  0  0
 18  3  1  0  0  0  0
 21 20  1  0  0  0  0
 23  4  1  0  0  0  0
 23 25  1  0  0  0  0
 24 27  1  0  0  0  0
 26 24  1  0  0  0  0
 28 29  1  0  0  0  0
 28 30  1  0  0  0  0
M  END
$$$$
