./opt_IRC/b3lyp/boats/1/glo_1w_beta_ircf_boat1_B3LYP_631Gd_opt.out
 OpenBabel01241715093D
Gaussian 09 # b3lyp/6-31g(d) opt freq
 30 28  0  0  1  0  0  0  0  0999 V2000
   -0.1387    1.4227    1.4611 H   0  0  0  0  0  0  0  0  0  0  0  0
   -0.4938    0.9697    0.5282 C   0  0  1  0  0  0  0  0  0  0  0  0
    1.2325   -0.7816    0.0719 C   0  0  2  0  0  0  0  0  0  0  0  0
   -1.2697   -1.3065    0.0368 C   0  0  1  0  0  0  0  0  0  0  0  0
    0.1422   -1.7633   -0.3674 C   0  0  2  0  0  0  0  0  0  0  0  0
   -1.2496   -0.1783    0.9394 O   0  0  0  0  0  0  0  0  0  0  0  0
    0.7679    0.6249   -0.2977 C   0  0  2  0  0  0  0  0  0  0  0  0
   -1.7431   -2.0904    0.6372 H   0  0  0  0  0  0  0  0  0  0  0  0
    0.1712   -1.8111   -1.4656 H   0  0  0  0  0  0  0  0  0  0  0  0
    0.5422    0.6417   -1.3737 H   0  0  0  0  0  0  0  0  0  0  0  0
   -1.3716    1.9908   -0.2004 C   0  0  0  0  0  0  0  0  0  0  0  0
   -2.2453    2.2483    0.4173 H   0  0  0  0  0  0  0  0  0  0  0  0
   -1.7214    1.5620   -1.1467 H   0  0  0  0  0  0  0  0  0  0  0  0
   -1.9991   -1.0129   -1.1191 O   0  0  0  0  0  0  0  0  0  0  0  0
    1.3369   -0.8446    1.1676 H   0  0  0  0  0  0  0  0  0  0  0  0
   -0.5471    3.1448   -0.4172 O   0  0  0  0  0  0  0  0  0  0  0  0
   -0.9630    3.7029   -1.0903 H   0  0  0  0  0  0  0  0  0  0  0  0
    0.3778   -3.0445    0.1943 O   0  0  0  0  0  0  0  0  0  0  0  0
    1.3074   -3.2407   -0.0158 H   0  0  0  0  0  0  0  0  0  0  0  0
    2.4095   -1.2112   -0.5794 O   0  0  0  0  0  0  0  0  0  0  0  0
    3.1802   -0.7344   -0.1915 H   0  0  0  0  0  0  0  0  0  0  0  0
    1.7778    1.6003   -0.0162 O   0  0  0  0  0  0  0  0  0  0  0  0
    1.3820    2.4600   -0.2517 H   0  0  0  0  0  0  0  0  0  0  0  0
   -4.0656   -0.2260    0.5943 O   0  0  0  0  0  0  0  0  0  0  0  0
   -2.9157   -0.8277   -0.8162 H   0  0  0  0  0  0  0  0  0  0  0  0
   -3.2423   -0.0156    1.0785 H   0  0  0  0  0  0  0  0  0  0  0  0
    4.2617    0.5346    0.4939 O   0  0  0  0  0  0  0  0  0  0  0  0
    3.5279    1.1542    0.2911 H   0  0  0  0  0  0  0  0  0  0  0  0
    4.2756    0.4906    1.4620 H   0  0  0  0  0  0  0  0  0  0  0  0
   -4.5216    0.6219    0.4872 H   0  0  0  0  0  0  0  0  0  0  0  0
  2  6  1  0  0  0  0
  2  1  1  1  0  0  0
  3 15  1  1  0  0  0
  4  8  1  1  0  0  0
  4  6  1  0  0  0  0
  5  9  1  6  0  0  0
  5  4  1  0  0  0  0
  5  3  1  0  0  0  0
  5 18  1  0  0  0  0
  7 10  1  6  0  0  0
  7 22  1  0  0  0  0
  7  3  1  0  0  0  0
  7  2  1  0  0  0  0
 11 12  1  0  0  0  0
 11  2  1  0  0  0  0
 13 11  1  0  0  0  0
 14 25  1  0  0  0  0
 14  4  1  0  0  0  0
 16 11  1  0  0  0  0
 17 16  1  0  0  0  0
 19 18  1  0  0  0  0
 20 21  1  0  0  0  0
 20  3  1  0  0  0  0
 23 22  1  0  0  0  0
 24 26  1  0  0  0  0
 27 29  1  0  0  0  0
 28 27  1  0  0  0  0
 30 24  1  0  0  0  0
M  END
$$$$
