./opt_IRC/b3lyp/boats/1/glo_2w_beta_ircr_boat1_B3LYP_631Gd_opt.out
 OpenBabel01251716433D
Gaussian 09 # b3lyp/6-31g(d) opt freq
 30 27  0  0  1  0  0  0  0  0999 V2000
    1.8651   -1.3976    1.2116 H   0  0  0  0  0  0  0  0  0  0  0  0
    1.6594   -0.4615    0.6785 C   0  0  1  0  0  0  0  0  0  0  0  0
   -0.7636   -1.2069    0.5114 C   0  0  2  0  0  0  0  0  0  0  0  0
   -2.5585    0.4136   -0.1475 C   0  0  0  0  0  0  0  0  0  0  0  0
   -2.1020   -1.0137   -0.2865 C   0  0  2  0  0  0  0  0  0  0  0  0
    1.3373    0.5068    1.6557 O   0  0  0  0  0  0  0  0  0  0  0  0
    0.4600   -0.7000   -0.2671 C   0  0  2  0  0  0  0  0  0  0  0  0
   -3.3177    0.5815    0.6427 H   0  0  0  0  0  0  0  0  0  0  0  0
   -1.9074   -1.2298   -1.3486 H   0  0  0  0  0  0  0  0  0  0  0  0
    0.2110    0.2546   -0.7551 H   0  0  0  0  0  0  0  0  0  0  0  0
    2.9289   -0.0327   -0.0681 C   0  0  0  0  0  0  0  0  0  0  0  0
    3.7172    0.1601    0.6709 H   0  0  0  0  0  0  0  0  0  0  0  0
    2.7325    0.8985   -0.6174 H   0  0  0  0  0  0  0  0  0  0  0  0
   -2.1055    1.3350   -0.8074 O   0  0  0  0  0  0  0  0  0  0  0  0
   -0.8274   -0.6954    1.4754 H   0  0  0  0  0  0  0  0  0  0  0  0
    3.3264   -1.0869   -0.9662 O   0  0  0  0  0  0  0  0  0  0  0  0
    4.0025   -0.7415   -1.5680 H   0  0  0  0  0  0  0  0  0  0  0  0
   -3.0993   -1.8489    0.2542 O   0  0  0  0  0  0  0  0  0  0  0  0
   -2.6049   -2.6188    0.5994 H   0  0  0  0  0  0  0  0  0  0  0  0
   -0.6250   -2.5948    0.7823 O   0  0  0  0  0  0  0  0  0  0  0  0
   -0.1372   -2.9322    0.0005 H   0  0  0  0  0  0  0  0  0  0  0  0
    0.7172   -1.7042   -1.2540 O   0  0  0  0  0  0  0  0  0  0  0  0
    1.6755   -1.6695   -1.4552 H   0  0  0  0  0  0  0  0  0  0  0  0
    1.2530    2.9481    0.3552 O   0  0  0  0  0  0  0  0  0  0  0  0
   -1.7479    3.0887   -0.4080 H   0  0  0  0  0  0  0  0  0  0  0  0
    1.2375    1.3801    1.2022 H   0  0  0  0  0  0  0  0  0  0  0  0
    1.6038    3.5818    0.9988 H   0  0  0  0  0  0  0  0  0  0  0  0
   -1.2330    3.9152   -0.2852 O   0  0  0  0  0  0  0  0  0  0  0  0
    0.3532    3.2985    0.1276 H   0  0  0  0  0  0  0  0  0  0  0  0
   -1.1699    4.2857   -1.1789 H   0  0  0  0  0  0  0  0  0  0  0  0
  2  1  1  1  0  0  0
  2  6  1  0  0  0  0
  3 20  1  0  0  0  0
  3 15  1  1  0  0  0
  4  8  1  0  0  0  0
  5  9  1  6  0  0  0
  5  4  1  0  0  0  0
  5 18  1  0  0  0  0
  5  3  1  0  0  0  0
  7 10  1  6  0  0  0
  7  3  1  0  0  0  0
  7  2  1  0  0  0  0
 11 12  1  0  0  0  0
 11  2  1  0  0  0  0
 13 11  1  0  0  0  0
 14  4  2  0  0  0  0
 16 11  1  0  0  0  0
 17 16  1  0  0  0  0
 18 19  1  0  0  0  0
 21 20  1  0  0  0  0
 22  7  1  0  0  0  0
 23 22  1  0  0  0  0
 24 27  1  0  0  0  0
 25 28  1  0  0  0  0
 26  6  1  0  0  0  0
 29 24  1  0  0  0  0
 30 28  1  0  0  0  0
M  END
$$$$
